# generated using pymatgen
data_Li2MnF6
_symmetry_space_group_name_H-M   'P 1'
_cell_length_a   8.42000000
_cell_length_b   8.42000000
_cell_length_c   4.59000000
_cell_angle_alpha   90.00000000
_cell_angle_beta   90.00000000
_cell_angle_gamma   120.00000000
_symmetry_Int_Tables_number   1
_chemical_formula_structural   Li2MnF6
_chemical_formula_sum   'Li6 Mn3 F18'
_cell_volume   281.81720298
_cell_formula_units_Z   3
loop_
 _symmetry_equiv_pos_site_id
 _symmetry_equiv_pos_as_xyz
  1  'x, y, z'
loop_
 _atom_type_symbol
 _atom_type_oxidation_number
  Li+  1.0
  Mn4+  4.0
  F-  -1.0
loop_
 _atom_site_type_symbol
 _atom_site_label
 _atom_site_symmetry_multiplicity
 _atom_site_fract_x
 _atom_site_fract_y
 _atom_site_fract_z
 _atom_site_occupancy
  Li+  Li0  1  0.33300000  0.00000000  0.00000000  1.0
  Li+  Li1  1  0.66700000  0.66700000  0.00000000  1.0
  Li+  Li2  1  0.00000000  0.33300000  0.00000000  1.0
  Li+  Li3  1  0.33300000  0.33300000  0.00000000  1.0
  Li+  Li4  1  0.00000000  0.66700000  0.00000000  1.0
  Li+  Li5  1  0.66700000  0.00000000  0.00000000  1.0
  Mn4+  Mn6  1  0.00000000  0.00000000  0.00000000  1.0
  Mn4+  Mn7  1  0.66666667  0.33333333  0.50000000  1.0
  Mn4+  Mn8  1  0.33333333  0.66666667  0.50000000  1.0
  F-  F9  1  0.19200000  0.09600000  0.78400000  1.0
  F-  F10  1  0.90400000  0.80800000  0.78400000  1.0
  F-  F11  1  0.90400000  0.09600000  0.78400000  1.0
  F-  F12  1  0.80800000  0.90400000  0.21600000  1.0
  F-  F13  1  0.09600000  0.19200000  0.21600000  1.0
  F-  F14  1  0.09600000  0.90400000  0.21600000  1.0
  F-  F15  1  0.47400000  0.23700000  0.28400000  1.0
  F-  F16  1  0.76300000  0.52600000  0.28400000  1.0
  F-  F17  1  0.76300000  0.23700000  0.28400000  1.0
  F-  F18  1  0.52600000  0.76300000  0.71600000  1.0
  F-  F19  1  0.23700000  0.47400000  0.71600000  1.0
  F-  F20  1  0.23700000  0.76300000  0.71600000  1.0
  F-  F21  1  0.86000000  0.43000000  0.71600000  1.0
  F-  F22  1  0.57000000  0.14000000  0.71600000  1.0
  F-  F23  1  0.57000000  0.43000000  0.71600000  1.0
  F-  F24  1  0.14000000  0.57000000  0.28400000  1.0
  F-  F25  1  0.43000000  0.86000000  0.28400000  1.0
  F-  F26  1  0.43000000  0.57000000  0.28400000  1.0
