# generated using pymatgen
data_Li2MnF5
_symmetry_space_group_name_H-M   'P 1'
_cell_length_a   10.01600000
_cell_length_b   4.94800000
_cell_length_c   7.40800000
_cell_angle_alpha   90.00000000
_cell_angle_beta   112.19000000
_cell_angle_gamma   90.00000000
_symmetry_Int_Tables_number   1
_chemical_formula_structural   Li2MnF5
_chemical_formula_sum   'Li8 Mn4 F20'
_cell_volume   339.94307010
_cell_formula_units_Z   4
loop_
 _symmetry_equiv_pos_site_id
 _symmetry_equiv_pos_as_xyz
  1  'x, y, z'
loop_
 _atom_type_symbol
 _atom_type_oxidation_number
  Li+  1.0
  Mn3+  3.0
  F-  -1.0
loop_
 _atom_site_type_symbol
 _atom_site_label
 _atom_site_symmetry_multiplicity
 _atom_site_fract_x
 _atom_site_fract_y
 _atom_site_fract_z
 _atom_site_occupancy
  Li+  Li0  1  0.13850000  0.49080000  0.74930000  1.0
  Li+  Li1  1  0.86150000  0.49080000  0.75070000  1.0
  Li+  Li2  1  0.86150000  0.50920000  0.25070000  1.0
  Li+  Li3  1  0.13850000  0.50920000  0.24930000  1.0
  Li+  Li4  1  0.63850000  0.99080000  0.74930000  1.0
  Li+  Li5  1  0.36150000  0.99080000  0.75070000  1.0
  Li+  Li6  1  0.36150000  0.00920000  0.25070000  1.0
  Li+  Li7  1  0.63850000  0.00920000  0.24930000  1.0
  Mn3+  Mn8  1  0.00000000  0.00000000  0.50000000  1.0
  Mn3+  Mn9  1  0.00000000  0.00000000  0.00000000  1.0
  Mn3+  Mn10  1  0.50000000  0.50000000  0.50000000  1.0
  Mn3+  Mn11  1  0.50000000  0.50000000  0.00000000  1.0
  F-  F12  1  0.08660000  0.69250000  0.45580000  1.0
  F-  F13  1  0.91340000  0.69250000  0.04420000  1.0
  F-  F14  1  0.91340000  0.30750000  0.54420000  1.0
  F-  F15  1  0.08660000  0.30750000  0.95580000  1.0
  F-  F16  1  0.58660000  0.19250000  0.45580000  1.0
  F-  F17  1  0.41340000  0.19250000  0.04420000  1.0
  F-  F18  1  0.41340000  0.80750000  0.54420000  1.0
  F-  F19  1  0.58660000  0.80750000  0.95580000  1.0
  F-  F20  1  0.17720000  0.15160000  0.64560000  1.0
  F-  F21  1  0.82280000  0.15160000  0.85440000  1.0
  F-  F22  1  0.82280000  0.84840000  0.35440000  1.0
  F-  F23  1  0.17720000  0.84840000  0.14560000  1.0
  F-  F24  1  0.67720000  0.65160000  0.64560000  1.0
  F-  F25  1  0.32280000  0.65160000  0.85440000  1.0
  F-  F26  1  0.32280000  0.34840000  0.35440000  1.0
  F-  F27  1  0.67720000  0.34840000  0.14560000  1.0
  F-  F28  1  0.00000000  0.79020000  0.75000000  1.0
  F-  F29  1  0.00000000  0.20980000  0.25000000  1.0
  F-  F30  1  0.50000000  0.29020000  0.75000000  1.0
  F-  F31  1  0.50000000  0.70980000  0.25000000  1.0
