# generated using pymatgen
data_Li2O2
_symmetry_space_group_name_H-M   'P 1'
_cell_length_a   6.30500000
_cell_length_b   6.30500000
_cell_length_c   7.71000000
_cell_angle_alpha   90.00000000
_cell_angle_beta   90.00000000
_cell_angle_gamma   120.00000000
_symmetry_Int_Tables_number   1
_chemical_formula_structural   Li2O2
_chemical_formula_sum   'Li16 O16'
_cell_volume   265.43316866
_cell_formula_units_Z   8
loop_
 _symmetry_equiv_pos_site_id
 _symmetry_equiv_pos_as_xyz
  1  'x, y, z'
loop_
 _atom_type_symbol
 _atom_type_oxidation_number
  Li0+  0.0
  O0+  0.0
loop_
 _atom_site_type_symbol
 _atom_site_label
 _atom_site_symmetry_multiplicity
 _atom_site_fract_x
 _atom_site_fract_y
 _atom_site_fract_z
 _atom_site_occupancy
  Li0+  Li0  1  0.00000000  0.00000000  0.84200000  1.0
  Li0+  Li1  1  0.00000000  0.00000000  0.15800000  1.0
  Li0+  Li2  1  0.66666667  0.33333333  0.65800000  1.0
  Li0+  Li3  1  0.66666667  0.33333333  0.34200000  1.0
  Li0+  Li4  1  0.00000000  0.50000000  0.84200000  1.0
  Li0+  Li5  1  0.50000000  0.00000000  0.84200000  1.0
  Li0+  Li6  1  0.50000000  0.50000000  0.84200000  1.0
  Li0+  Li7  1  0.00000000  0.50000000  0.15800000  1.0
  Li0+  Li8  1  0.50000000  0.00000000  0.15800000  1.0
  Li0+  Li9  1  0.50000000  0.50000000  0.15800000  1.0
  Li0+  Li10  1  0.66666667  0.83330000  0.65800000  1.0
  Li0+  Li11  1  0.16670000  0.33340000  0.65800000  1.0
  Li0+  Li12  1  0.16670000  0.83330000  0.65800000  1.0
  Li0+  Li13  1  0.66666667  0.83330000  0.34200000  1.0
  Li0+  Li14  1  0.16670000  0.33340000  0.34200000  1.0
  Li0+  Li15  1  0.16670000  0.83330000  0.34200000  1.0
  O0+  O16  1  0.00000000  0.00000000  0.58300000  1.0
  O0+  O17  1  0.00000000  0.00000000  0.41700000  1.0
  O0+  O18  1  0.66666667  0.33333333  0.91700000  1.0
  O0+  O19  1  0.66666667  0.33333333  0.08300000  1.0
  O0+  O20  1  0.00000000  0.50000000  0.58300000  1.0
  O0+  O21  1  0.50000000  0.00000000  0.58300000  1.0
  O0+  O22  1  0.50000000  0.50000000  0.58300000  1.0
  O0+  O23  1  0.00000000  0.50000000  0.41700000  1.0
  O0+  O24  1  0.50000000  0.00000000  0.41700000  1.0
  O0+  O25  1  0.50000000  0.50000000  0.41700000  1.0
  O0+  O26  1  0.66666667  0.83330000  0.91700000  1.0
  O0+  O27  1  0.16670000  0.33340000  0.91700000  1.0
  O0+  O28  1  0.16670000  0.83330000  0.91700000  1.0
  O0+  O29  1  0.66666667  0.83330000  0.08300000  1.0
  O0+  O30  1  0.16670000  0.33340000  0.08300000  1.0
  O0+  O31  1  0.16670000  0.83330000  0.08300000  1.0
