# generated using pymatgen
data_Li2O2
_symmetry_space_group_name_H-M   'P 1'
_cell_length_a   6.39300000
_cell_length_b   2.56100000
_cell_length_c   6.80100000
_cell_angle_alpha   90.00000000
_cell_angle_beta   158.10700000
_cell_angle_gamma   90.00000000
_symmetry_Int_Tables_number   1
_chemical_formula_structural   Li2O2
_chemical_formula_sum   'Li4 O4'
_cell_volume   41.51926458
_cell_formula_units_Z   2
loop_
 _symmetry_equiv_pos_site_id
 _symmetry_equiv_pos_as_xyz
  1  'x, y, z'
loop_
 _atom_type_symbol
 _atom_type_oxidation_number
  Li0+  0.0
  O0+  0.0
loop_
 _atom_site_type_symbol
 _atom_site_label
 _atom_site_symmetry_multiplicity
 _atom_site_fract_x
 _atom_site_fract_y
 _atom_site_fract_z
 _atom_site_occupancy
  Li0+  Li0  1  0.27000000  0.10800000  0.40500000  1.0
  Li0+  Li1  1  0.73000000  0.60800000  0.09500000  1.0
  Li0+  Li2  1  0.73000000  0.89200000  0.59500000  1.0
  Li0+  Li3  1  0.27000000  0.39200000  0.90500000  1.0
  O0+  O4  1  0.80800000  0.60100000  0.90600000  1.0
  O0+  O5  1  0.19200000  0.10100000  0.59400000  1.0
  O0+  O6  1  0.19200000  0.39900000  0.09400000  1.0
  O0+  O7  1  0.80800000  0.89900000  0.40600000  1.0
