# generated using pymatgen
data_Li2TiO3
_symmetry_space_group_name_H-M   'P 1'
_cell_length_a   5.06230000
_cell_length_b   8.78760000
_cell_length_c   9.75330000
_cell_angle_alpha   90.00000000
_cell_angle_beta   100.21200000
_cell_angle_gamma   90.00000000
_symmetry_Int_Tables_number   1
_chemical_formula_structural   Li2TiO3
_chemical_formula_sum   'Li16 Ti8 O24'
_cell_volume   427.00679727
_cell_formula_units_Z   8
loop_
 _symmetry_equiv_pos_site_id
 _symmetry_equiv_pos_as_xyz
  1  'x, y, z'
loop_
 _atom_type_symbol
 _atom_type_oxidation_number
  Li+  1.0
  Ti4+  4.0
  O2-  -2.0
loop_
 _atom_site_type_symbol
 _atom_site_label
 _atom_site_symmetry_multiplicity
 _atom_site_fract_x
 _atom_site_fract_y
 _atom_site_fract_z
 _atom_site_occupancy
  Li+  Li0  1  0.23830000  0.92050000  0.49990000  1.0
  Li+  Li1  1  0.76170000  0.92050000  0.00010000  1.0
  Li+  Li2  1  0.76170000  0.07950000  0.50010000  1.0
  Li+  Li3  1  0.23830000  0.07950000  0.99990000  1.0
  Li+  Li4  1  0.73830000  0.42050000  0.49990000  1.0
  Li+  Li5  1  0.26170000  0.42050000  0.00010000  1.0
  Li+  Li6  1  0.26170000  0.57950000  0.50010000  1.0
  Li+  Li7  1  0.73830000  0.57950000  0.99990000  1.0
  Li+  Li8  1  0.25000000  0.75000000  0.00000000  1.0
  Li+  Li9  1  0.75000000  0.75000000  0.50000000  1.0
  Li+  Li10  1  0.75000000  0.25000000  0.00000000  1.0
  Li+  Li11  1  0.25000000  0.25000000  0.50000000  1.0
  Li+  Li12  1  0.00000000  0.91480000  0.75000000  1.0
  Li+  Li13  1  0.00000000  0.08520000  0.25000000  1.0
  Li+  Li14  1  0.50000000  0.41480000  0.75000000  1.0
  Li+  Li15  1  0.50000000  0.58520000  0.25000000  1.0
  Ti4+  Ti16  1  0.00000000  0.58251000  0.75000000  1.0
  Ti4+  Ti17  1  0.00000000  0.41749000  0.25000000  1.0
  Ti4+  Ti18  1  0.50000000  0.08251000  0.75000000  1.0
  Ti4+  Ti19  1  0.50000000  0.91749000  0.25000000  1.0
  Ti4+  Ti20  1  0.00000000  0.25029000  0.75000000  1.0
  Ti4+  Ti21  1  0.00000000  0.74971000  0.25000000  1.0
  Ti4+  Ti22  1  0.50000000  0.75029000  0.75000000  1.0
  Ti4+  Ti23  1  0.50000000  0.24971000  0.25000000  1.0
  O2-  O24  1  0.14116000  0.73644000  0.63720000  1.0
  O2-  O25  1  0.85884000  0.73644000  0.86280000  1.0
  O2-  O26  1  0.85884000  0.26356000  0.36280000  1.0
  O2-  O27  1  0.14116000  0.26356000  0.13720000  1.0
  O2-  O28  1  0.64116000  0.23644000  0.63720000  1.0
  O2-  O29  1  0.35884000  0.23644000  0.86280000  1.0
  O2-  O30  1  0.35884000  0.76356000  0.36280000  1.0
  O2-  O31  1  0.64116000  0.76356000  0.13720000  1.0
  O2-  O32  1  0.10555000  0.41556000  0.63719000  1.0
  O2-  O33  1  0.89445000  0.41556000  0.86281000  1.0
  O2-  O34  1  0.89445000  0.58444000  0.36281000  1.0
  O2-  O35  1  0.10555000  0.58444000  0.13719000  1.0
  O2-  O36  1  0.60555000  0.91556000  0.63719000  1.0
  O2-  O37  1  0.39445000  0.91556000  0.86281000  1.0
  O2-  O38  1  0.39445000  0.08444000  0.36281000  1.0
  O2-  O39  1  0.60555000  0.08444000  0.13719000  1.0
  O2-  O40  1  0.13958000  0.09412000  0.63454000  1.0
  O2-  O41  1  0.86042000  0.09412000  0.86546000  1.0
  O2-  O42  1  0.86042000  0.90588000  0.36546000  1.0
  O2-  O43  1  0.13958000  0.90588000  0.13454000  1.0
  O2-  O44  1  0.63958000  0.59412000  0.63454000  1.0
  O2-  O45  1  0.36042000  0.59412000  0.86546000  1.0
  O2-  O46  1  0.36042000  0.40588000  0.36546000  1.0
  O2-  O47  1  0.63958000  0.40588000  0.13454000  1.0
