# generated using pymatgen
data_Li2Ti6O13
_symmetry_space_group_name_H-M   'P 1'
_cell_length_a   15.35040000
_cell_length_b   3.75260000
_cell_length_c   9.14610000
_cell_angle_alpha   90.00000000
_cell_angle_beta   99.46500000
_cell_angle_gamma   90.00000000
_symmetry_Int_Tables_number   1
_chemical_formula_structural   Li2Ti6O13
_chemical_formula_sum   'Li4 Ti12 O26'
_cell_volume   519.67870557
_cell_formula_units_Z   2
loop_
 _symmetry_equiv_pos_site_id
 _symmetry_equiv_pos_as_xyz
  1  'x, y, z'
loop_
 _atom_type_symbol
 _atom_type_oxidation_number
  Li+  1.0
  Ti4+  4.0
  O2-  -2.0
loop_
 _atom_site_type_symbol
 _atom_site_label
 _atom_site_symmetry_multiplicity
 _atom_site_fract_x
 _atom_site_fract_y
 _atom_site_fract_z
 _atom_site_occupancy
  Li+  Li0  1  0.93808000  0.00000000  0.23730000  1.0
  Li+  Li1  1  0.06192000  0.00000000  0.76270000  1.0
  Li+  Li2  1  0.43808000  0.50000000  0.23730000  1.0
  Li+  Li3  1  0.56192000  0.50000000  0.76270000  1.0
  Ti4+  Ti4  1  0.88810000  0.00000000  0.89925000  1.0
  Ti4+  Ti5  1  0.11190000  0.00000000  0.10075000  1.0
  Ti4+  Ti6  1  0.38810000  0.50000000  0.89925000  1.0
  Ti4+  Ti7  1  0.61190000  0.50000000  0.10075000  1.0
  Ti4+  Ti8  1  0.83492000  0.00000000  0.57067000  1.0
  Ti4+  Ti9  1  0.16508000  0.00000000  0.42933000  1.0
  Ti4+  Ti10  1  0.33492000  0.50000000  0.57067000  1.0
  Ti4+  Ti11  1  0.66508000  0.50000000  0.42933000  1.0
  Ti4+  Ti12  1  0.76996000  0.00000000  0.22855000  1.0
  Ti4+  Ti13  1  0.23004000  0.00000000  0.77145000  1.0
  Ti4+  Ti14  1  0.26996000  0.50000000  0.22855000  1.0
  Ti4+  Ti15  1  0.73004000  0.50000000  0.77145000  1.0
  O2-  O16  1  0.00000000  0.00000000  0.00000000  1.0
  O2-  O17  1  0.50000000  0.50000000  0.00000000  1.0
  O2-  O18  1  0.75965000  0.00000000  0.75782000  1.0
  O2-  O19  1  0.24035000  0.00000000  0.24218000  1.0
  O2-  O20  1  0.25965000  0.50000000  0.75782000  1.0
  O2-  O21  1  0.74035000  0.50000000  0.24218000  1.0
  O2-  O22  1  0.92844000  0.00000000  0.71032000  1.0
  O2-  O23  1  0.07156000  0.00000000  0.28968000  1.0
  O2-  O24  1  0.42844000  0.50000000  0.71032000  1.0
  O2-  O25  1  0.57156000  0.50000000  0.28968000  1.0
  O2-  O26  1  0.70641000  0.00000000  0.42899000  1.0
  O2-  O27  1  0.29359000  0.00000000  0.57101000  1.0
  O2-  O28  1  0.20641000  0.50000000  0.42899000  1.0
  O2-  O29  1  0.79359000  0.50000000  0.57101000  1.0
  O2-  O30  1  0.86544000  0.00000000  0.38882000  1.0
  O2-  O31  1  0.13456000  0.00000000  0.61118000  1.0
  O2-  O32  1  0.36544000  0.50000000  0.38882000  1.0
  O2-  O33  1  0.63456000  0.50000000  0.61118000  1.0
  O2-  O34  1  0.64559000  0.00000000  0.11384000  1.0
  O2-  O35  1  0.35441000  0.00000000  0.88616000  1.0
  O2-  O36  1  0.14559000  0.50000000  0.11384000  1.0
  O2-  O37  1  0.85441000  0.50000000  0.88616000  1.0
  O2-  O38  1  0.84066000  0.00000000  0.08973000  1.0
  O2-  O39  1  0.15934000  0.00000000  0.91027000  1.0
  O2-  O40  1  0.34066000  0.50000000  0.08973000  1.0
  O2-  O41  1  0.65934000  0.50000000  0.91027000  1.0
