# generated using pymatgen
data_Li3TiF6
_symmetry_space_group_name_H-M   'P 1'
_cell_length_a   14.45200000
_cell_length_b   8.79800000
_cell_length_c   10.11300000
_cell_angle_alpha   90.00000000
_cell_angle_beta   96.30000000
_cell_angle_gamma   90.00000000
_symmetry_Int_Tables_number   1
_chemical_formula_structural   Li3TiF6
_chemical_formula_sum   'Li36 Ti12 F72'
_cell_volume   1278.08942846
_cell_formula_units_Z   12
loop_
 _symmetry_equiv_pos_site_id
 _symmetry_equiv_pos_as_xyz
  1  'x, y, z'
loop_
 _atom_type_symbol
 _atom_type_oxidation_number
  Li+  1.0
  Ti3+  3.0
  F-  -1.0
loop_
 _atom_site_type_symbol
 _atom_site_label
 _atom_site_symmetry_multiplicity
 _atom_site_fract_x
 _atom_site_fract_y
 _atom_site_fract_z
 _atom_site_occupancy
  Li+  Li0  1  0.00000000  0.80480000  0.75000000  1.0
  Li+  Li1  1  0.00000000  0.19520000  0.25000000  1.0
  Li+  Li2  1  0.50000000  0.30480000  0.75000000  1.0
  Li+  Li3  1  0.50000000  0.69520000  0.25000000  1.0
  Li+  Li4  1  0.33090000  0.79210000  0.45210000  1.0
  Li+  Li5  1  0.66910000  0.79210000  0.04790000  1.0
  Li+  Li6  1  0.66910000  0.20790000  0.54790000  1.0
  Li+  Li7  1  0.33090000  0.20790000  0.95210000  1.0
  Li+  Li8  1  0.83090000  0.29210000  0.45210000  1.0
  Li+  Li9  1  0.16910000  0.29210000  0.04790000  1.0
  Li+  Li10  1  0.16910000  0.70790000  0.54790000  1.0
  Li+  Li11  1  0.83090000  0.70790000  0.95210000  1.0
  Li+  Li12  1  0.01990000  0.65060000  0.02750000  1.0
  Li+  Li13  1  0.98010000  0.65060000  0.47250000  1.0
  Li+  Li14  1  0.98010000  0.34940000  0.97250000  1.0
  Li+  Li15  1  0.01990000  0.34940000  0.52750000  1.0
  Li+  Li16  1  0.51990000  0.15060000  0.02750000  1.0
  Li+  Li17  1  0.48010000  0.15060000  0.47250000  1.0
  Li+  Li18  1  0.48010000  0.84940000  0.97250000  1.0
  Li+  Li19  1  0.51990000  0.84940000  0.52750000  1.0
  Li+  Li20  1  0.29810000  0.64450000  0.07100000  1.0
  Li+  Li21  1  0.70190000  0.64450000  0.42900000  1.0
  Li+  Li22  1  0.70190000  0.35550000  0.92900000  1.0
  Li+  Li23  1  0.29810000  0.35550000  0.57100000  1.0
  Li+  Li24  1  0.79810000  0.14450000  0.07100000  1.0
  Li+  Li25  1  0.20190000  0.14450000  0.42900000  1.0
  Li+  Li26  1  0.20190000  0.85550000  0.92900000  1.0
  Li+  Li27  1  0.79810000  0.85550000  0.57100000  1.0
  Li+  Li28  1  0.14020000  0.15160000  0.77400000  1.0
  Li+  Li29  1  0.85980000  0.15160000  0.72600000  1.0
  Li+  Li30  1  0.85980000  0.84840000  0.22600000  1.0
  Li+  Li31  1  0.14020000  0.84840000  0.27400000  1.0
  Li+  Li32  1  0.64020000  0.65160000  0.77400000  1.0
  Li+  Li33  1  0.35980000  0.65160000  0.72600000  1.0
  Li+  Li34  1  0.35980000  0.34840000  0.22600000  1.0
  Li+  Li35  1  0.64020000  0.34840000  0.27400000  1.0
  Ti3+  Ti36  1  0.00000000  0.00000000  0.50000000  1.0
  Ti3+  Ti37  1  0.00000000  0.00000000  0.00000000  1.0
  Ti3+  Ti38  1  0.50000000  0.50000000  0.50000000  1.0
  Ti3+  Ti39  1  0.50000000  0.50000000  0.00000000  1.0
  Ti3+  Ti40  1  0.33844000  0.99796000  0.20863000  1.0
  Ti3+  Ti41  1  0.66156000  0.99796000  0.29137000  1.0
  Ti3+  Ti42  1  0.66156000  0.00204000  0.79137000  1.0
  Ti3+  Ti43  1  0.33844000  0.00204000  0.70863000  1.0
  Ti3+  Ti44  1  0.83844000  0.49796000  0.20863000  1.0
  Ti3+  Ti45  1  0.16156000  0.49796000  0.29137000  1.0
  Ti3+  Ti46  1  0.16156000  0.50204000  0.79137000  1.0
  Ti3+  Ti47  1  0.83844000  0.50204000  0.70863000  1.0
  F-  F48  1  0.09108000  0.66268000  0.68705000  1.0
  F-  F49  1  0.90892000  0.66268000  0.81295000  1.0
  F-  F50  1  0.90892000  0.33732000  0.31295000  1.0
  F-  F51  1  0.09108000  0.33732000  0.18705000  1.0
  F-  F52  1  0.59108000  0.16268000  0.68705000  1.0
  F-  F53  1  0.40892000  0.16268000  0.81295000  1.0
  F-  F54  1  0.40892000  0.83732000  0.31295000  1.0
  F-  F55  1  0.59108000  0.83732000  0.18705000  1.0
  F-  F56  1  0.23138000  0.66556000  0.38708000  1.0
  F-  F57  1  0.76862000  0.66556000  0.11292000  1.0
  F-  F58  1  0.76862000  0.33444000  0.61292000  1.0
  F-  F59  1  0.23138000  0.33444000  0.88708000  1.0
  F-  F60  1  0.73138000  0.16556000  0.38708000  1.0
  F-  F61  1  0.26862000  0.16556000  0.11292000  1.0
  F-  F62  1  0.26862000  0.83444000  0.61292000  1.0
  F-  F63  1  0.73138000  0.83444000  0.88708000  1.0
  F-  F64  1  0.09860000  0.66088000  0.18786000  1.0
  F-  F65  1  0.90140000  0.66088000  0.31214000  1.0
  F-  F66  1  0.90140000  0.33912000  0.81214000  1.0
  F-  F67  1  0.09860000  0.33912000  0.68786000  1.0
  F-  F68  1  0.59860000  0.16088000  0.18786000  1.0
  F-  F69  1  0.40140000  0.16088000  0.31214000  1.0
  F-  F70  1  0.40140000  0.83912000  0.81214000  1.0
  F-  F71  1  0.59860000  0.83912000  0.68786000  1.0
  F-  F72  1  0.07713000  0.83224000  0.43767000  1.0
  F-  F73  1  0.92287000  0.83224000  0.06233000  1.0
  F-  F74  1  0.92287000  0.16776000  0.56233000  1.0
  F-  F75  1  0.07713000  0.16776000  0.93767000  1.0
  F-  F76  1  0.57713000  0.33224000  0.43767000  1.0
  F-  F77  1  0.42287000  0.33224000  0.06233000  1.0
  F-  F78  1  0.42287000  0.66776000  0.56233000  1.0
  F-  F79  1  0.57713000  0.66776000  0.93767000  1.0
  F-  F80  1  0.42160000  0.00888000  0.06651000  1.0
  F-  F81  1  0.57840000  0.00888000  0.43349000  1.0
  F-  F82  1  0.57840000  0.99112000  0.93349000  1.0
  F-  F83  1  0.42160000  0.99112000  0.56651000  1.0
  F-  F84  1  0.92160000  0.50888000  0.06651000  1.0
  F-  F85  1  0.07840000  0.50888000  0.43349000  1.0
  F-  F86  1  0.07840000  0.49112000  0.93349000  1.0
  F-  F87  1  0.92160000  0.49112000  0.56651000  1.0
  F-  F88  1  0.07366000  0.99830000  0.66819000  1.0
  F-  F89  1  0.92634000  0.99830000  0.83181000  1.0
  F-  F90  1  0.92634000  0.00170000  0.33181000  1.0
  F-  F91  1  0.07366000  0.00170000  0.16819000  1.0
  F-  F92  1  0.57366000  0.49830000  0.66819000  1.0
  F-  F93  1  0.42634000  0.49830000  0.83181000  1.0
  F-  F94  1  0.42634000  0.50170000  0.33181000  1.0
  F-  F95  1  0.57366000  0.50170000  0.16819000  1.0
  F-  F96  1  0.24703000  0.97912000  0.34344000  1.0
  F-  F97  1  0.75297000  0.97912000  0.15656000  1.0
  F-  F98  1  0.75297000  0.02088000  0.65656000  1.0
  F-  F99  1  0.24703000  0.02088000  0.84344000  1.0
  F-  F100  1  0.74703000  0.47912000  0.34344000  1.0
  F-  F101  1  0.25297000  0.47912000  0.15656000  1.0
  F-  F102  1  0.25297000  0.52088000  0.65656000  1.0
  F-  F103  1  0.74703000  0.52088000  0.84344000  1.0
  F-  F104  1  0.92667000  0.83183000  0.57078000  1.0
  F-  F105  1  0.07333000  0.83183000  0.92922000  1.0
  F-  F106  1  0.07333000  0.16817000  0.42922000  1.0
  F-  F107  1  0.92667000  0.16817000  0.07078000  1.0
  F-  F108  1  0.42667000  0.33183000  0.57078000  1.0
  F-  F109  1  0.57333000  0.33183000  0.92922000  1.0
  F-  F110  1  0.57333000  0.66817000  0.42922000  1.0
  F-  F111  1  0.42667000  0.66817000  0.07078000  1.0
  F-  F112  1  0.26030000  0.84432000  0.10806000  1.0
  F-  F113  1  0.73970000  0.84432000  0.39194000  1.0
  F-  F114  1  0.73970000  0.15568000  0.89194000  1.0
  F-  F115  1  0.26030000  0.15568000  0.60806000  1.0
  F-  F116  1  0.76030000  0.34432000  0.10806000  1.0
  F-  F117  1  0.23970000  0.34432000  0.39194000  1.0
  F-  F118  1  0.23970000  0.65568000  0.89194000  1.0
  F-  F119  1  0.76030000  0.65568000  0.60806000  1.0
