# generated using pymatgen
data_Li4TiO4
_symmetry_space_group_name_H-M   'P 1'
_cell_length_a   7.91160000
_cell_length_b   7.43280000
_cell_length_c   6.13680000
_cell_angle_alpha   90.00000000
_cell_angle_beta   90.00000000
_cell_angle_gamma   90.00000000
_symmetry_Int_Tables_number   1
_chemical_formula_structural   Li4TiO4
_chemical_formula_sum   'Li16 Ti4 O16'
_cell_volume   360.87661346
_cell_formula_units_Z   4
loop_
 _symmetry_equiv_pos_site_id
 _symmetry_equiv_pos_as_xyz
  1  'x, y, z'
loop_
 _atom_type_symbol
 _atom_type_oxidation_number
  Li+  1.0
  Ti4+  4.0
  O2-  -2.0
loop_
 _atom_site_type_symbol
 _atom_site_label
 _atom_site_symmetry_multiplicity
 _atom_site_fract_x
 _atom_site_fract_y
 _atom_site_fract_z
 _atom_site_occupancy
  Li+  Li0  1  0.83500000  0.00000000  0.50000000  1.0
  Li+  Li1  1  0.83500000  0.00000000  0.00000000  1.0
  Li+  Li2  1  0.16500000  0.00000000  0.50000000  1.0
  Li+  Li3  1  0.16500000  0.00000000  0.00000000  1.0
  Li+  Li4  1  0.33500000  0.50000000  0.50000000  1.0
  Li+  Li5  1  0.33500000  0.50000000  0.00000000  1.0
  Li+  Li6  1  0.66500000  0.50000000  0.50000000  1.0
  Li+  Li7  1  0.66500000  0.50000000  0.00000000  1.0
  Li+  Li8  1  0.66700000  0.24300000  0.25000000  1.0
  Li+  Li9  1  0.66700000  0.75700000  0.75000000  1.0
  Li+  Li10  1  0.33300000  0.75700000  0.75000000  1.0
  Li+  Li11  1  0.33300000  0.24300000  0.25000000  1.0
  Li+  Li12  1  0.16700000  0.74300000  0.25000000  1.0
  Li+  Li13  1  0.16700000  0.25700000  0.75000000  1.0
  Li+  Li14  1  0.83300000  0.25700000  0.75000000  1.0
  Li+  Li15  1  0.83300000  0.74300000  0.25000000  1.0
  Ti4+  Ti16  1  0.00000000  0.34200000  0.25000000  1.0
  Ti4+  Ti17  1  0.00000000  0.65800000  0.75000000  1.0
  Ti4+  Ti18  1  0.50000000  0.84200000  0.25000000  1.0
  Ti4+  Ti19  1  0.50000000  0.15800000  0.75000000  1.0
  O2-  O20  1  0.00000000  0.19200000  0.49500000  1.0
  O2-  O21  1  0.00000000  0.80800000  0.50500000  1.0
  O2-  O22  1  0.00000000  0.19200000  0.00500000  1.0
  O2-  O23  1  0.00000000  0.80800000  0.99500000  1.0
  O2-  O24  1  0.50000000  0.69200000  0.49500000  1.0
  O2-  O25  1  0.50000000  0.30800000  0.50500000  1.0
  O2-  O26  1  0.50000000  0.69200000  0.00500000  1.0
  O2-  O27  1  0.50000000  0.30800000  0.99500000  1.0
  O2-  O28  1  0.80800000  0.47100000  0.25000000  1.0
  O2-  O29  1  0.80800000  0.52900000  0.75000000  1.0
  O2-  O30  1  0.19200000  0.52900000  0.75000000  1.0
  O2-  O31  1  0.19200000  0.47100000  0.25000000  1.0
  O2-  O32  1  0.30800000  0.97100000  0.25000000  1.0
  O2-  O33  1  0.30800000  0.02900000  0.75000000  1.0
  O2-  O34  1  0.69200000  0.02900000  0.75000000  1.0
  O2-  O35  1  0.69200000  0.97100000  0.25000000  1.0
