# generated using pymatgen
data_LiMnF4
_symmetry_space_group_name_H-M   'P 1'
_cell_length_a   5.42300000
_cell_length_b   4.64000000
_cell_length_c   5.70600000
_cell_angle_alpha   90.00000000
_cell_angle_beta   113.16000000
_cell_angle_gamma   90.00000000
_symmetry_Int_Tables_number   1
_chemical_formula_structural   LiMnF4
_chemical_formula_sum   'Li2 Mn2 F8'
_cell_volume   132.00751049
_cell_formula_units_Z   2
loop_
 _symmetry_equiv_pos_site_id
 _symmetry_equiv_pos_as_xyz
  1  'x, y, z'
loop_
 _atom_type_symbol
 _atom_type_oxidation_number
  Li+  1.0
  Mn3+  3.0
  F-  -1.0
loop_
 _atom_site_type_symbol
 _atom_site_label
 _atom_site_symmetry_multiplicity
 _atom_site_fract_x
 _atom_site_fract_y
 _atom_site_fract_z
 _atom_site_occupancy
  Li+  Li0  1  0.50000000  0.00000000  0.50000000  1.0
  Li+  Li1  1  0.50000000  0.50000000  0.00000000  1.0
  Mn3+  Mn2  1  0.00000000  0.50000000  0.50000000  1.0
  Mn3+  Mn3  1  0.00000000  0.00000000  0.00000000  1.0
  F-  F4  1  0.85140000  0.71870000  0.14040000  1.0
  F-  F5  1  0.14860000  0.21870000  0.35960000  1.0
  F-  F6  1  0.14860000  0.28130000  0.85960000  1.0
  F-  F7  1  0.85140000  0.78130000  0.64040000  1.0
  F-  F8  1  0.32320000  0.81810000  0.13860000  1.0
  F-  F9  1  0.67680000  0.31810000  0.36140000  1.0
  F-  F10  1  0.67680000  0.18190000  0.86140000  1.0
  F-  F11  1  0.32320000  0.68190000  0.63860000  1.0
