# generated using pymatgen
data_LiMnO2
_symmetry_space_group_name_H-M   'P 1'
_cell_length_a   5.65040000
_cell_length_b   5.65040000
_cell_length_c   9.24200000
_cell_angle_alpha   90.00000000
_cell_angle_beta   90.00000000
_cell_angle_gamma   90.00000000
_symmetry_Int_Tables_number   1
_chemical_formula_structural   LiMnO2
_chemical_formula_sum   'Li8 Mn8 O16'
_cell_volume   295.06952032
_cell_formula_units_Z   8
loop_
 _symmetry_equiv_pos_site_id
 _symmetry_equiv_pos_as_xyz
  1  'x, y, z'
loop_
 _atom_type_symbol
 _atom_type_oxidation_number
  Li+  1.0
  Mn3+  3.0
  O2-  -2.0
loop_
 _atom_site_type_symbol
 _atom_site_label
 _atom_site_symmetry_multiplicity
 _atom_site_fract_x
 _atom_site_fract_y
 _atom_site_fract_z
 _atom_site_occupancy
  Li+  Li0  1  0.25000000  0.75000000  0.75000000  1.0
  Li+  Li1  1  0.00000000  0.50000000  0.50000000  1.0
  Li+  Li2  1  0.00000000  0.00000000  0.50000000  1.0
  Li+  Li3  1  0.75000000  0.75000000  0.75000000  1.0
  Li+  Li4  1  0.75000000  0.25000000  0.25000000  1.0
  Li+  Li5  1  0.25000000  0.25000000  0.25000000  1.0
  Li+  Li6  1  0.50000000  0.00000000  0.00000000  1.0
  Li+  Li7  1  0.50000000  0.50000000  0.00000000  1.0
  Mn3+  Mn8  1  0.25000000  0.75000000  0.25000000  1.0
  Mn3+  Mn9  1  0.00000000  0.50000000  0.00000000  1.0
  Mn3+  Mn10  1  0.00000000  0.00000000  0.00000000  1.0
  Mn3+  Mn11  1  0.75000000  0.75000000  0.25000000  1.0
  Mn3+  Mn12  1  0.75000000  0.25000000  0.75000000  1.0
  Mn3+  Mn13  1  0.25000000  0.25000000  0.75000000  1.0
  Mn3+  Mn14  1  0.50000000  0.00000000  0.50000000  1.0
  Mn3+  Mn15  1  0.50000000  0.50000000  0.50000000  1.0
  O2-  O16  1  0.76700000  0.75000000  0.99800000  1.0
  O2-  O17  1  0.00000000  0.01700000  0.74800000  1.0
  O2-  O18  1  0.00000000  0.48300000  0.74800000  1.0
  O2-  O19  1  0.23300000  0.75000000  0.99800000  1.0
  O2-  O20  1  0.23300000  0.25000000  0.00200000  1.0
  O2-  O21  1  0.00000000  0.98300000  0.25200000  1.0
  O2-  O22  1  0.00000000  0.51700000  0.25200000  1.0
  O2-  O23  1  0.76700000  0.25000000  0.00200000  1.0
  O2-  O24  1  0.26700000  0.25000000  0.49800000  1.0
  O2-  O25  1  0.50000000  0.51700000  0.24800000  1.0
  O2-  O26  1  0.50000000  0.98300000  0.24800000  1.0
  O2-  O27  1  0.73300000  0.25000000  0.49800000  1.0
  O2-  O28  1  0.73300000  0.75000000  0.50200000  1.0
  O2-  O29  1  0.50000000  0.48300000  0.75200000  1.0
  O2-  O30  1  0.50000000  0.01700000  0.75200000  1.0
  O2-  O31  1  0.26700000  0.75000000  0.50200000  1.0
