# generated using pymatgen
data_LiMn4O8
_symmetry_space_group_name_H-M   'P 1'
_cell_length_a   8.15288900
_cell_length_b   8.15288900
_cell_length_c   8.15288900
_cell_angle_alpha   90.00000000
_cell_angle_beta   90.00000000
_cell_angle_gamma   90.00000000
_symmetry_Int_Tables_number   1
_chemical_formula_structural   LiMn4O8
_chemical_formula_sum   'Li4 Mn16 O32'
_cell_volume   541.91926290
_cell_formula_units_Z   4
loop_
 _symmetry_equiv_pos_site_id
 _symmetry_equiv_pos_as_xyz
  1  'x, y, z'
loop_
 _atom_type_symbol
 _atom_type_oxidation_number
  Li+  1.0
  Mn3+  3.0
  Mn4+  4.0
  O2-  -2.0
loop_
 _atom_site_type_symbol
 _atom_site_label
 _atom_site_symmetry_multiplicity
 _atom_site_fract_x
 _atom_site_fract_y
 _atom_site_fract_z
 _atom_site_occupancy
  Li+  Li0  1  0.48900000  0.98900000  0.51100000  1.0
  Li+  Li1  1  0.98900000  0.51100000  0.48900000  1.0
  Li+  Li2  1  0.51100000  0.48900000  0.98900000  1.0
  Li+  Li3  1  0.01100000  0.01100000  0.01100000  1.0
  Mn3+  Mn4  1  0.87400000  0.37400000  0.12600000  1.0
  Mn3+  Mn5  1  0.37400000  0.12600000  0.87400000  1.0
  Mn3+  Mn6  1  0.12600000  0.87400000  0.37400000  1.0
  Mn3+  Mn7  1  0.62600000  0.62600000  0.62600000  1.0
  Mn4+  Mn8  1  0.62740000  0.87160000  0.87980000  1.0
  Mn4+  Mn9  1  0.12020000  0.12740000  0.62840000  1.0
  Mn4+  Mn10  1  0.37160000  0.62020000  0.37260000  1.0
  Mn4+  Mn11  1  0.12740000  0.62840000  0.12020000  1.0
  Mn4+  Mn12  1  0.62020000  0.37260000  0.37160000  1.0
  Mn4+  Mn13  1  0.87160000  0.87980000  0.62740000  1.0
  Mn4+  Mn14  1  0.37260000  0.37160000  0.62020000  1.0
  Mn4+  Mn15  1  0.87980000  0.62740000  0.87160000  1.0
  Mn4+  Mn16  1  0.62840000  0.12020000  0.12740000  1.0
  Mn4+  Mn17  1  0.87260000  0.12840000  0.37980000  1.0
  Mn4+  Mn18  1  0.37980000  0.87260000  0.12840000  1.0
  Mn4+  Mn19  1  0.12840000  0.37980000  0.87260000  1.0
  O2-  O20  1  0.11300000  0.61300000  0.88700000  1.0
  O2-  O21  1  0.61300000  0.88700000  0.11300000  1.0
  O2-  O22  1  0.88700000  0.11300000  0.61300000  1.0
  O2-  O23  1  0.38700000  0.38700000  0.38700000  1.0
  O2-  O24  1  0.36400000  0.85800000  0.36500000  1.0
  O2-  O25  1  0.63500000  0.86400000  0.64200000  1.0
  O2-  O26  1  0.35800000  0.13500000  0.63600000  1.0
  O2-  O27  1  0.86400000  0.64200000  0.63500000  1.0
  O2-  O28  1  0.13500000  0.63600000  0.35800000  1.0
  O2-  O29  1  0.85800000  0.36500000  0.36400000  1.0
  O2-  O30  1  0.63600000  0.35800000  0.13500000  1.0
  O2-  O31  1  0.36500000  0.36400000  0.85800000  1.0
  O2-  O32  1  0.64200000  0.63500000  0.86400000  1.0
  O2-  O33  1  0.13600000  0.14200000  0.86500000  1.0
  O2-  O34  1  0.86500000  0.13600000  0.14200000  1.0
  O2-  O35  1  0.14200000  0.86500000  0.13600000  1.0
  O2-  O36  1  0.63100000  0.13100000  0.36900000  1.0
  O2-  O37  1  0.13100000  0.36900000  0.63100000  1.0
  O2-  O38  1  0.36900000  0.63100000  0.13100000  1.0
  O2-  O39  1  0.86900000  0.86900000  0.86900000  1.0
  O2-  O40  1  0.10400000  0.89600000  0.61900000  1.0
  O2-  O41  1  0.38100000  0.60400000  0.60400000  1.0
  O2-  O42  1  0.39600000  0.88100000  0.89600000  1.0
  O2-  O43  1  0.60400000  0.60400000  0.38100000  1.0
  O2-  O44  1  0.88100000  0.89600000  0.39600000  1.0
  O2-  O45  1  0.89600000  0.61900000  0.10400000  1.0
  O2-  O46  1  0.89600000  0.39600000  0.88100000  1.0
  O2-  O47  1  0.61900000  0.10400000  0.89600000  1.0
  O2-  O48  1  0.60400000  0.38100000  0.60400000  1.0
  O2-  O49  1  0.39600000  0.10400000  0.11900000  1.0
  O2-  O50  1  0.11900000  0.39600000  0.10400000  1.0
  O2-  O51  1  0.10400000  0.11900000  0.39600000  1.0
