# generated using pymatgen
data_LiTiMnF6
_symmetry_space_group_name_H-M   'P 1'
_cell_length_a   8.74100000
_cell_length_b   8.74100000
_cell_length_c   4.70000000
_cell_angle_alpha   90.00000000
_cell_angle_beta   90.00000000
_cell_angle_gamma   120.00000000
_symmetry_Int_Tables_number   1
_chemical_formula_structural   LiTiMnF6
_chemical_formula_sum   'Li3 Ti3 Mn3 F18'
_cell_volume   310.99308328
_cell_formula_units_Z   3
loop_
 _symmetry_equiv_pos_site_id
 _symmetry_equiv_pos_as_xyz
  1  'x, y, z'
loop_
 _atom_type_symbol
 _atom_type_oxidation_number
  Li+  1.0
  Ti3+  3.0
  Mn2+  2.0
  F-  -1.0
loop_
 _atom_site_type_symbol
 _atom_site_label
 _atom_site_symmetry_multiplicity
 _atom_site_fract_x
 _atom_site_fract_y
 _atom_site_fract_z
 _atom_site_occupancy
  Li+  Li0  1  0.00000000  0.00000000  0.00000000  1.0
  Li+  Li1  1  0.66666667  0.33333333  0.58860000  1.0
  Li+  Li2  1  0.33333333  0.66666667  0.41140000  1.0
  Ti3+  Ti3  1  0.31110000  0.00000000  0.50000000  1.0
  Ti3+  Ti4  1  0.68890000  0.68890000  0.50000000  1.0
  Ti3+  Ti5  1  0.00000000  0.31110000  0.50000000  1.0
  Mn2+  Mn6  1  0.64640000  0.00000000  0.00000000  1.0
  Mn2+  Mn7  1  0.35360000  0.35360000  0.00000000  1.0
  Mn2+  Mn8  1  0.00000000  0.64640000  0.00000000  1.0
  F-  F9  1  0.13860000  0.24740000  0.66130000  1.0
  F-  F10  1  0.10880000  0.86140000  0.66130000  1.0
  F-  F11  1  0.75260000  0.89120000  0.66130000  1.0
  F-  F12  1  0.86140000  0.10880000  0.33870000  1.0
  F-  F13  1  0.24740000  0.13860000  0.33870000  1.0
  F-  F14  1  0.89120000  0.75260000  0.33870000  1.0
  F-  F15  1  0.88470000  0.41750000  0.31270000  1.0
  F-  F16  1  0.53280000  0.11530000  0.31270000  1.0
  F-  F17  1  0.58250000  0.46720000  0.31270000  1.0
  F-  F18  1  0.11530000  0.53280000  0.68730000  1.0
  F-  F19  1  0.41750000  0.88470000  0.68730000  1.0
  F-  F20  1  0.46720000  0.58250000  0.68730000  1.0
  F-  F21  1  0.47320000  0.24340000  0.71730000  1.0
  F-  F22  1  0.77020000  0.52680000  0.71730000  1.0
  F-  F23  1  0.75660000  0.22980000  0.71730000  1.0
  F-  F24  1  0.52680000  0.77020000  0.28270000  1.0
  F-  F25  1  0.24340000  0.47320000  0.28270000  1.0
  F-  F26  1  0.22980000  0.75660000  0.28270000  1.0
