# generated using pymatgen
data_LiTiO2
_symmetry_space_group_name_H-M   'P 1'
_cell_length_a   4.04300000
_cell_length_b   4.04300000
_cell_length_c   8.62800000
_cell_angle_alpha   90.00000000
_cell_angle_beta   90.00000000
_cell_angle_gamma   90.00000000
_symmetry_Int_Tables_number   1
_chemical_formula_structural   LiTiO2
_chemical_formula_sum   'Li4 Ti4 O8'
_cell_volume   141.03198517
_cell_formula_units_Z   4
loop_
 _symmetry_equiv_pos_site_id
 _symmetry_equiv_pos_as_xyz
  1  'x, y, z'
loop_
 _atom_type_symbol
 _atom_type_oxidation_number
  Li+  1.0
  Ti3+  3.0
  O2-  -2.0
loop_
 _atom_site_type_symbol
 _atom_site_label
 _atom_site_symmetry_multiplicity
 _atom_site_fract_x
 _atom_site_fract_y
 _atom_site_fract_z
 _atom_site_occupancy
  Li+  Li0  1  0.00000000  0.75000000  0.62500000  1.0
  Li+  Li1  1  0.00000000  0.25000000  0.37500000  1.0
  Li+  Li2  1  0.50000000  0.25000000  0.12500000  1.0
  Li+  Li3  1  0.50000000  0.75000000  0.87500000  1.0
  Ti3+  Ti4  1  0.00000000  0.75000000  0.12500000  1.0
  Ti3+  Ti5  1  0.00000000  0.25000000  0.87500000  1.0
  Ti3+  Ti6  1  0.50000000  0.25000000  0.62500000  1.0
  Ti3+  Ti7  1  0.50000000  0.75000000  0.37500000  1.0
  O2-  O8  1  0.00000000  0.75000000  0.88880000  1.0
  O2-  O9  1  0.00000000  0.25000000  0.63880000  1.0
  O2-  O10  1  0.00000000  0.25000000  0.11120000  1.0
  O2-  O11  1  0.00000000  0.75000000  0.36120000  1.0
  O2-  O12  1  0.50000000  0.25000000  0.38880000  1.0
  O2-  O13  1  0.50000000  0.75000000  0.13880000  1.0
  O2-  O14  1  0.50000000  0.75000000  0.61120000  1.0
  O2-  O15  1  0.50000000  0.25000000  0.86120000  1.0
