# generated using pymatgen
data_Mn2O2F9
_symmetry_space_group_name_H-M   'P 1'
_cell_length_a   17.55200000
_cell_length_b   8.37300000
_cell_length_c   9.10100000
_cell_angle_alpha   90.00000000
_cell_angle_beta   102.30000000
_cell_angle_gamma   90.00000000
_symmetry_Int_Tables_number   1
_chemical_formula_structural   Mn2O2F9
_chemical_formula_sum   'Mn16 O16 F72'
_cell_volume   1306.80755845
_cell_formula_units_Z   8
loop_
 _symmetry_equiv_pos_site_id
 _symmetry_equiv_pos_as_xyz
  1  'x, y, z'
loop_
 _atom_type_symbol
 _atom_type_oxidation_number
  Mn4+  4.0
  O0.50+  0.5
  F-  -1.0
loop_
 _atom_site_type_symbol
 _atom_site_label
 _atom_site_symmetry_multiplicity
 _atom_site_fract_x
 _atom_site_fract_y
 _atom_site_fract_z
 _atom_site_occupancy
  Mn4+  Mn0  1  0.07390000  0.74630000  0.55490000  1.0
  Mn4+  Mn1  1  0.92610000  0.74630000  0.94510000  1.0
  Mn4+  Mn2  1  0.92610000  0.25370000  0.44510000  1.0
  Mn4+  Mn3  1  0.07390000  0.25370000  0.05490000  1.0
  Mn4+  Mn4  1  0.57390000  0.24630000  0.55490000  1.0
  Mn4+  Mn5  1  0.42610000  0.24630000  0.94510000  1.0
  Mn4+  Mn6  1  0.42610000  0.75370000  0.44510000  1.0
  Mn4+  Mn7  1  0.57390000  0.75370000  0.05490000  1.0
  Mn4+  Mn8  1  0.12400000  0.86240000  0.94160000  1.0
  Mn4+  Mn9  1  0.87600000  0.86240000  0.55840000  1.0
  Mn4+  Mn10  1  0.87600000  0.13760000  0.05840000  1.0
  Mn4+  Mn11  1  0.12400000  0.13760000  0.44160000  1.0
  Mn4+  Mn12  1  0.62400000  0.36240000  0.94160000  1.0
  Mn4+  Mn13  1  0.37600000  0.36240000  0.55840000  1.0
  Mn4+  Mn14  1  0.37600000  0.63760000  0.05840000  1.0
  Mn4+  Mn15  1  0.62400000  0.63760000  0.44160000  1.0
  O0.50+  O16  1  0.19480000  0.54930000  0.22910000  1.0
  O0.50+  O17  1  0.80520000  0.54930000  0.27090000  1.0
  O0.50+  O18  1  0.80520000  0.45070000  0.77090000  1.0
  O0.50+  O19  1  0.19480000  0.45070000  0.72910000  1.0
  O0.50+  O20  1  0.69480000  0.04930000  0.22910000  1.0
  O0.50+  O21  1  0.30520000  0.04930000  0.27090000  1.0
  O0.50+  O22  1  0.30520000  0.95070000  0.77090000  1.0
  O0.50+  O23  1  0.69480000  0.95070000  0.72910000  1.0
  O0.50+  O24  1  0.20040000  0.61700000  0.33350000  1.0
  O0.50+  O25  1  0.79960000  0.61700000  0.16650000  1.0
  O0.50+  O26  1  0.79960000  0.38300000  0.66650000  1.0
  O0.50+  O27  1  0.20040000  0.38300000  0.83350000  1.0
  O0.50+  O28  1  0.70040000  0.11700000  0.33350000  1.0
  O0.50+  O29  1  0.29960000  0.11700000  0.16650000  1.0
  O0.50+  O30  1  0.29960000  0.88300000  0.66650000  1.0
  O0.50+  O31  1  0.70040000  0.88300000  0.83350000  1.0
  F-  F32  1  0.03600000  0.75320000  0.98280000  1.0
  F-  F33  1  0.96400000  0.75320000  0.51720000  1.0
  F-  F34  1  0.96400000  0.24680000  0.01720000  1.0
  F-  F35  1  0.03600000  0.24680000  0.48280000  1.0
  F-  F36  1  0.53600000  0.25320000  0.98280000  1.0
  F-  F37  1  0.46400000  0.25320000  0.51720000  1.0
  F-  F38  1  0.46400000  0.74680000  0.01720000  1.0
  F-  F39  1  0.53600000  0.74680000  0.48280000  1.0
  F-  F40  1  0.07440000  0.86200000  0.73450000  1.0
  F-  F41  1  0.92560000  0.86200000  0.76550000  1.0
  F-  F42  1  0.92560000  0.13800000  0.26550000  1.0
  F-  F43  1  0.07440000  0.13800000  0.23450000  1.0
  F-  F44  1  0.57440000  0.36200000  0.73450000  1.0
  F-  F45  1  0.42560000  0.36200000  0.76550000  1.0
  F-  F46  1  0.42560000  0.63800000  0.26550000  1.0
  F-  F47  1  0.57440000  0.63800000  0.23450000  1.0
  F-  F48  1  0.17630000  0.75060000  0.59530000  1.0
  F-  F49  1  0.82370000  0.75060000  0.90470000  1.0
  F-  F50  1  0.82370000  0.24940000  0.40470000  1.0
  F-  F51  1  0.17630000  0.24940000  0.09530000  1.0
  F-  F52  1  0.67630000  0.25060000  0.59530000  1.0
  F-  F53  1  0.32370000  0.25060000  0.90470000  1.0
  F-  F54  1  0.32370000  0.74940000  0.40470000  1.0
  F-  F55  1  0.67630000  0.74940000  0.09530000  1.0
  F-  F56  1  0.20150000  0.97150000  0.90030000  1.0
  F-  F57  1  0.79850000  0.97150000  0.59970000  1.0
  F-  F58  1  0.79850000  0.02850000  0.09970000  1.0
  F-  F59  1  0.20150000  0.02850000  0.40030000  1.0
  F-  F60  1  0.70150000  0.47150000  0.90030000  1.0
  F-  F61  1  0.29850000  0.47150000  0.59970000  1.0
  F-  F62  1  0.29850000  0.52850000  0.09970000  1.0
  F-  F63  1  0.70150000  0.52850000  0.40030000  1.0
  F-  F64  1  0.16400000  0.86810000  0.13350000  1.0
  F-  F65  1  0.83600000  0.86810000  0.36650000  1.0
  F-  F66  1  0.83600000  0.13190000  0.86650000  1.0
  F-  F67  1  0.16400000  0.13190000  0.63350000  1.0
  F-  F68  1  0.66400000  0.36810000  0.13350000  1.0
  F-  F69  1  0.33600000  0.36810000  0.36650000  1.0
  F-  F70  1  0.33600000  0.63190000  0.86650000  1.0
  F-  F71  1  0.66400000  0.63190000  0.63350000  1.0
  F-  F72  1  0.06880000  0.94600000  0.45470000  1.0
  F-  F73  1  0.93120000  0.94600000  0.04530000  1.0
  F-  F74  1  0.93120000  0.05400000  0.54530000  1.0
  F-  F75  1  0.06880000  0.05400000  0.95470000  1.0
  F-  F76  1  0.56880000  0.44600000  0.45470000  1.0
  F-  F77  1  0.43120000  0.44600000  0.04530000  1.0
  F-  F78  1  0.43120000  0.55400000  0.54530000  1.0
  F-  F79  1  0.56880000  0.55400000  0.95470000  1.0
  F-  F80  1  0.07130000  0.65260000  0.38400000  1.0
  F-  F81  1  0.92870000  0.65260000  0.11600000  1.0
  F-  F82  1  0.92870000  0.34740000  0.61600000  1.0
  F-  F83  1  0.07130000  0.34740000  0.88400000  1.0
  F-  F84  1  0.57130000  0.15260000  0.38400000  1.0
  F-  F85  1  0.42870000  0.15260000  0.11600000  1.0
  F-  F86  1  0.42870000  0.84740000  0.61600000  1.0
  F-  F87  1  0.57130000  0.84740000  0.88400000  1.0
  F-  F88  1  0.07210000  0.56600000  0.64860000  1.0
  F-  F89  1  0.92790000  0.56600000  0.85140000  1.0
  F-  F90  1  0.92790000  0.43400000  0.35140000  1.0
  F-  F91  1  0.07210000  0.43400000  0.14860000  1.0
  F-  F92  1  0.57210000  0.06600000  0.64860000  1.0
  F-  F93  1  0.42790000  0.06600000  0.85140000  1.0
  F-  F94  1  0.42790000  0.93400000  0.35140000  1.0
  F-  F95  1  0.57210000  0.93400000  0.14860000  1.0
  F-  F96  1  0.16690000  0.67910000  0.92130000  1.0
  F-  F97  1  0.83310000  0.67910000  0.57870000  1.0
  F-  F98  1  0.83310000  0.32090000  0.07870000  1.0
  F-  F99  1  0.16690000  0.32090000  0.42130000  1.0
  F-  F100  1  0.66690000  0.17910000  0.92130000  1.0
  F-  F101  1  0.33310000  0.17910000  0.57870000  1.0
  F-  F102  1  0.33310000  0.82090000  0.07870000  1.0
  F-  F103  1  0.66690000  0.82090000  0.42130000  1.0
