# generated using pymatgen
data_Mn3O4
_symmetry_space_group_name_H-M   'P 1'
_cell_length_a   5.75770000
_cell_length_b   5.75770000
_cell_length_c   9.42800000
_cell_angle_alpha   90.00000000
_cell_angle_beta   90.00000000
_cell_angle_gamma   90.00000000
_symmetry_Int_Tables_number   1
_chemical_formula_structural   Mn3O4
_chemical_formula_sum   'Mn12 O16'
_cell_volume   312.54865839
_cell_formula_units_Z   4
loop_
 _symmetry_equiv_pos_site_id
 _symmetry_equiv_pos_as_xyz
  1  'x, y, z'
loop_
 _atom_type_symbol
 _atom_type_oxidation_number
  Mn2+  2.0
  Mn3+  3.0
  O2-  -2.0
loop_
 _atom_site_type_symbol
 _atom_site_label
 _atom_site_symmetry_multiplicity
 _atom_site_fract_x
 _atom_site_fract_y
 _atom_site_fract_z
 _atom_site_occupancy
  Mn2+  Mn0  1  0.50000000  0.75000000  0.87500000  1.0
  Mn2+  Mn1  1  0.00000000  0.75000000  0.62500000  1.0
  Mn2+  Mn2  1  0.50000000  0.25000000  0.12500000  1.0
  Mn2+  Mn3  1  0.00000000  0.25000000  0.37500000  1.0
  Mn3+  Mn4  1  0.25000000  0.75000000  0.25000000  1.0
  Mn3+  Mn5  1  0.00000000  0.50000000  0.00000000  1.0
  Mn3+  Mn6  1  0.00000000  0.00000000  0.00000000  1.0
  Mn3+  Mn7  1  0.75000000  0.75000000  0.25000000  1.0
  Mn3+  Mn8  1  0.75000000  0.25000000  0.75000000  1.0
  Mn3+  Mn9  1  0.25000000  0.25000000  0.75000000  1.0
  Mn3+  Mn10  1  0.50000000  0.00000000  0.50000000  1.0
  Mn3+  Mn11  1  0.50000000  0.50000000  0.50000000  1.0
  O2-  O12  1  0.77730000  0.75000000  0.00880000  1.0
  O2-  O13  1  0.00000000  0.02730000  0.75880000  1.0
  O2-  O14  1  0.00000000  0.47270000  0.75880000  1.0
  O2-  O15  1  0.22270000  0.75000000  0.00880000  1.0
  O2-  O16  1  0.22270000  0.25000000  0.99120000  1.0
  O2-  O17  1  0.00000000  0.97270000  0.24120000  1.0
  O2-  O18  1  0.00000000  0.52730000  0.24120000  1.0
  O2-  O19  1  0.77730000  0.25000000  0.99120000  1.0
  O2-  O20  1  0.27730000  0.25000000  0.50880000  1.0
  O2-  O21  1  0.50000000  0.52730000  0.25880000  1.0
  O2-  O22  1  0.50000000  0.97270000  0.25880000  1.0
  O2-  O23  1  0.72270000  0.25000000  0.50880000  1.0
  O2-  O24  1  0.72270000  0.75000000  0.49120000  1.0
  O2-  O25  1  0.50000000  0.47270000  0.74120000  1.0
  O2-  O26  1  0.50000000  0.02730000  0.74120000  1.0
  O2-  O27  1  0.27730000  0.75000000  0.49120000  1.0
