# generated using pymatgen
data_MnF3
_symmetry_space_group_name_H-M   'P 1'
_cell_length_a   8.92020000
_cell_length_b   5.04720000
_cell_length_c   13.47480000
_cell_angle_alpha   90.00000000
_cell_angle_beta   92.64000000
_cell_angle_gamma   90.00000000
_symmetry_Int_Tables_number   1
_chemical_formula_structural   MnF3
_chemical_formula_sum   'Mn12 F36'
_cell_volume   606.01901879
_cell_formula_units_Z   12
loop_
 _symmetry_equiv_pos_site_id
 _symmetry_equiv_pos_as_xyz
  1  'x, y, z'
loop_
 _atom_type_symbol
 _atom_type_oxidation_number
  Mn3+  3.0
  F-  -1.0
loop_
 _atom_site_type_symbol
 _atom_site_label
 _atom_site_symmetry_multiplicity
 _atom_site_fract_x
 _atom_site_fract_y
 _atom_site_fract_z
 _atom_site_occupancy
  Mn3+  Mn0  1  0.00000000  0.00000000  0.50000000  1.0
  Mn3+  Mn1  1  0.00000000  0.00000000  0.00000000  1.0
  Mn3+  Mn2  1  0.50000000  0.50000000  0.50000000  1.0
  Mn3+  Mn3  1  0.50000000  0.50000000  0.00000000  1.0
  Mn3+  Mn4  1  0.16712000  0.49896000  0.83405000  1.0
  Mn3+  Mn5  1  0.83288000  0.49896000  0.66595000  1.0
  Mn3+  Mn6  1  0.83288000  0.50104000  0.16595000  1.0
  Mn3+  Mn7  1  0.16712000  0.50104000  0.33405000  1.0
  Mn3+  Mn8  1  0.66712000  0.99896000  0.83405000  1.0
  Mn3+  Mn9  1  0.33288000  0.99896000  0.66595000  1.0
  Mn3+  Mn10  1  0.33288000  0.00104000  0.16595000  1.0
  Mn3+  Mn11  1  0.66712000  0.00104000  0.33405000  1.0
  F-  F12  1  0.16676000  0.89463000  0.08667000  1.0
  F-  F13  1  0.83324000  0.89463000  0.41333000  1.0
  F-  F14  1  0.83324000  0.10537000  0.91333000  1.0
  F-  F15  1  0.16676000  0.10537000  0.58667000  1.0
  F-  F16  1  0.66676000  0.39463000  0.08667000  1.0
  F-  F17  1  0.33324000  0.39463000  0.41333000  1.0
  F-  F18  1  0.33324000  0.60537000  0.91333000  1.0
  F-  F19  1  0.66676000  0.60537000  0.58667000  1.0
  F-  F20  1  0.30691000  0.28440000  0.74480000  1.0
  F-  F21  1  0.69309000  0.28440000  0.75520000  1.0
  F-  F22  1  0.69309000  0.71560000  0.25520000  1.0
  F-  F23  1  0.30691000  0.71560000  0.24480000  1.0
  F-  F24  1  0.80691000  0.78440000  0.74480000  1.0
  F-  F25  1  0.19309000  0.78440000  0.75520000  1.0
  F-  F26  1  0.19309000  0.21560000  0.25520000  1.0
  F-  F27  1  0.80691000  0.21560000  0.24480000  1.0
  F-  F28  1  0.47466000  0.79250000  0.07776000  1.0
  F-  F29  1  0.52534000  0.79250000  0.42224000  1.0
  F-  F30  1  0.52534000  0.20750000  0.92224000  1.0
  F-  F31  1  0.47466000  0.20750000  0.57776000  1.0
  F-  F32  1  0.97466000  0.29250000  0.07776000  1.0
  F-  F33  1  0.02534000  0.29250000  0.42224000  1.0
  F-  F34  1  0.02534000  0.70750000  0.92224000  1.0
  F-  F35  1  0.97466000  0.70750000  0.57776000  1.0
  F-  F36  1  0.14727000  0.78690000  0.41191000  1.0
  F-  F37  1  0.85273000  0.78690000  0.08809000  1.0
  F-  F38  1  0.85273000  0.21310000  0.58809000  1.0
  F-  F39  1  0.14727000  0.21310000  0.91191000  1.0
  F-  F40  1  0.64727000  0.28690000  0.41191000  1.0
  F-  F41  1  0.35273000  0.28690000  0.08809000  1.0
  F-  F42  1  0.35273000  0.71310000  0.58809000  1.0
  F-  F43  1  0.64727000  0.71310000  0.91191000  1.0
  F-  F44  1  0.00000000  0.37280000  0.75000000  1.0
  F-  F45  1  0.00000000  0.62720000  0.25000000  1.0
  F-  F46  1  0.50000000  0.87280000  0.75000000  1.0
  F-  F47  1  0.50000000  0.12720000  0.25000000  1.0
