# generated using pymatgen
data_MnF4
_symmetry_space_group_name_H-M   'P 1'
_cell_length_a   12.63000000
_cell_length_b   12.63000000
_cell_length_c   6.04900000
_cell_angle_alpha   90.00000000
_cell_angle_beta   90.00000000
_cell_angle_gamma   90.00000000
_symmetry_Int_Tables_number   1
_chemical_formula_structural   MnF4
_chemical_formula_sum   'Mn16 F64'
_cell_volume   964.91772810
_cell_formula_units_Z   16
loop_
 _symmetry_equiv_pos_site_id
 _symmetry_equiv_pos_as_xyz
  1  'x, y, z'
loop_
 _atom_type_symbol
 _atom_type_oxidation_number
  Mn4+  4.0
  F-  -1.0
loop_
 _atom_site_type_symbol
 _atom_site_label
 _atom_site_symmetry_multiplicity
 _atom_site_fract_x
 _atom_site_fract_y
 _atom_site_fract_z
 _atom_site_occupancy
  Mn4+  Mn0  1  0.37740000  0.88000000  0.26550000  1.0
  Mn4+  Mn1  1  0.62260000  0.62000000  0.26550000  1.0
  Mn4+  Mn2  1  0.13000000  0.87260000  0.51550000  1.0
  Mn4+  Mn3  1  0.87000000  0.62740000  0.51550000  1.0
  Mn4+  Mn4  1  0.62260000  0.12000000  0.73450000  1.0
  Mn4+  Mn5  1  0.37740000  0.38000000  0.73450000  1.0
  Mn4+  Mn6  1  0.87000000  0.12740000  0.48450000  1.0
  Mn4+  Mn7  1  0.13000000  0.37260000  0.48450000  1.0
  Mn4+  Mn8  1  0.87740000  0.38000000  0.76550000  1.0
  Mn4+  Mn9  1  0.12260000  0.12000000  0.76550000  1.0
  Mn4+  Mn10  1  0.63000000  0.37260000  0.01550000  1.0
  Mn4+  Mn11  1  0.37000000  0.12740000  0.01550000  1.0
  Mn4+  Mn12  1  0.12260000  0.62000000  0.23450000  1.0
  Mn4+  Mn13  1  0.87740000  0.88000000  0.23450000  1.0
  Mn4+  Mn14  1  0.37000000  0.62740000  0.98450000  1.0
  Mn4+  Mn15  1  0.63000000  0.87260000  0.98450000  1.0
  F-  F16  1  0.52360000  0.88110000  0.21650000  1.0
  F-  F17  1  0.47640000  0.61890000  0.21650000  1.0
  F-  F18  1  0.13110000  0.72640000  0.46650000  1.0
  F-  F19  1  0.86890000  0.77360000  0.46650000  1.0
  F-  F20  1  0.47640000  0.11890000  0.78350000  1.0
  F-  F21  1  0.52360000  0.38110000  0.78350000  1.0
  F-  F22  1  0.86890000  0.27360000  0.53350000  1.0
  F-  F23  1  0.13110000  0.22640000  0.53350000  1.0
  F-  F24  1  0.02360000  0.38110000  0.71650000  1.0
  F-  F25  1  0.97640000  0.11890000  0.71650000  1.0
  F-  F26  1  0.63110000  0.22640000  0.96650000  1.0
  F-  F27  1  0.36890000  0.27360000  0.96650000  1.0
  F-  F28  1  0.97640000  0.61890000  0.28350000  1.0
  F-  F29  1  0.02360000  0.88110000  0.28350000  1.0
  F-  F30  1  0.36890000  0.77360000  0.03350000  1.0
  F-  F31  1  0.63110000  0.72640000  0.03350000  1.0
  F-  F32  1  0.73320000  0.88090000  0.22010000  1.0
  F-  F33  1  0.26680000  0.61910000  0.22010000  1.0
  F-  F34  1  0.13090000  0.51680000  0.47010000  1.0
  F-  F35  1  0.86910000  0.98320000  0.47010000  1.0
  F-  F36  1  0.26680000  0.11910000  0.77990000  1.0
  F-  F37  1  0.73320000  0.38090000  0.77990000  1.0
  F-  F38  1  0.86910000  0.48320000  0.52990000  1.0
  F-  F39  1  0.13090000  0.01680000  0.52990000  1.0
  F-  F40  1  0.23320000  0.38090000  0.72010000  1.0
  F-  F41  1  0.76680000  0.11910000  0.72010000  1.0
  F-  F42  1  0.63090000  0.01680000  0.97010000  1.0
  F-  F43  1  0.36910000  0.48320000  0.97010000  1.0
  F-  F44  1  0.76680000  0.61910000  0.27990000  1.0
  F-  F45  1  0.23320000  0.88090000  0.27990000  1.0
  F-  F46  1  0.36910000  0.98320000  0.02990000  1.0
  F-  F47  1  0.63090000  0.51680000  0.02990000  1.0
  F-  F48  1  0.38620000  0.78060000  0.45610000  1.0
  F-  F49  1  0.61380000  0.71940000  0.45610000  1.0
  F-  F50  1  0.03060000  0.86380000  0.70610000  1.0
  F-  F51  1  0.96940000  0.63620000  0.70610000  1.0
  F-  F52  1  0.61380000  0.21940000  0.54390000  1.0
  F-  F53  1  0.38620000  0.28060000  0.54390000  1.0
  F-  F54  1  0.96940000  0.13620000  0.29390000  1.0
  F-  F55  1  0.03060000  0.36380000  0.29390000  1.0
  F-  F56  1  0.88620000  0.28060000  0.95610000  1.0
  F-  F57  1  0.11380000  0.21940000  0.95610000  1.0
  F-  F58  1  0.53060000  0.36380000  0.20610000  1.0
  F-  F59  1  0.46940000  0.13620000  0.20610000  1.0
  F-  F60  1  0.11380000  0.71940000  0.04390000  1.0
  F-  F61  1  0.88620000  0.78060000  0.04390000  1.0
  F-  F62  1  0.46940000  0.63620000  0.79390000  1.0
  F-  F63  1  0.53060000  0.86380000  0.79390000  1.0
  F-  F64  1  0.38680000  0.97800000  0.46010000  1.0
  F-  F65  1  0.61320000  0.52200000  0.46010000  1.0
  F-  F66  1  0.22800000  0.86320000  0.71010000  1.0
  F-  F67  1  0.77200000  0.63680000  0.71010000  1.0
  F-  F68  1  0.61320000  0.02200000  0.53990000  1.0
  F-  F69  1  0.38680000  0.47800000  0.53990000  1.0
  F-  F70  1  0.77200000  0.13680000  0.28990000  1.0
  F-  F71  1  0.22800000  0.36320000  0.28990000  1.0
  F-  F72  1  0.88680000  0.47800000  0.96010000  1.0
  F-  F73  1  0.11320000  0.02200000  0.96010000  1.0
  F-  F74  1  0.72800000  0.36320000  0.21010000  1.0
  F-  F75  1  0.27200000  0.13680000  0.21010000  1.0
  F-  F76  1  0.11320000  0.52200000  0.03990000  1.0
  F-  F77  1  0.88680000  0.97800000  0.03990000  1.0
  F-  F78  1  0.27200000  0.63680000  0.78990000  1.0
  F-  F79  1  0.72800000  0.86320000  0.78990000  1.0
