# generated using pymatgen
data_MnO2
_symmetry_space_group_name_H-M   'P 1'
_cell_length_a   8.86000000
_cell_length_b   5.24000000
_cell_length_c   5.70000000
_cell_angle_alpha   90.00000000
_cell_angle_beta   90.00000000
_cell_angle_gamma   90.00000000
_symmetry_Int_Tables_number   1
_chemical_formula_structural   MnO2
_chemical_formula_sum   'Mn8 O16'
_cell_volume   264.63048000
_cell_formula_units_Z   8
loop_
 _symmetry_equiv_pos_site_id
 _symmetry_equiv_pos_as_xyz
  1  'x, y, z'
loop_
 _atom_type_symbol
 _atom_type_oxidation_number
  Mn3+  3.0
  O2-  -2.0
loop_
 _atom_site_type_symbol
 _atom_site_label
 _atom_site_symmetry_multiplicity
 _atom_site_fract_x
 _atom_site_fract_y
 _atom_site_fract_z
 _atom_site_occupancy
  Mn3+  Mn0  1  0.75000000  0.50000000  0.00800000  1.0
  Mn3+  Mn1  1  0.25000000  0.50000000  0.99200000  1.0
  Mn3+  Mn2  1  0.00000000  0.00000000  0.74200000  1.0
  Mn3+  Mn3  1  0.00000000  0.00000000  0.25800000  1.0
  Mn3+  Mn4  1  0.25000000  0.50000000  0.50800000  1.0
  Mn3+  Mn5  1  0.75000000  0.50000000  0.49200000  1.0
  Mn3+  Mn6  1  0.50000000  0.00000000  0.24200000  1.0
  Mn3+  Mn7  1  0.50000000  0.00000000  0.75800000  1.0
  O2-  O8  1  0.86900000  0.37800000  0.75000000  1.0
  O2-  O9  1  0.13100000  0.62200000  0.25000000  1.0
  O2-  O10  1  0.88100000  0.87800000  0.00000000  1.0
  O2-  O11  1  0.11900000  0.12200000  0.00000000  1.0
  O2-  O12  1  0.36900000  0.37800000  0.25000000  1.0
  O2-  O13  1  0.63100000  0.62200000  0.75000000  1.0
  O2-  O14  1  0.38100000  0.87800000  0.50000000  1.0
  O2-  O15  1  0.61900000  0.12200000  0.50000000  1.0
  O2-  O16  1  0.86900000  0.37800000  0.25000000  1.0
  O2-  O17  1  0.13100000  0.62200000  0.75000000  1.0
  O2-  O18  1  0.88100000  0.87800000  0.50000000  1.0
  O2-  O19  1  0.11900000  0.12200000  0.50000000  1.0
  O2-  O20  1  0.36900000  0.37800000  0.75000000  1.0
  O2-  O21  1  0.63100000  0.62200000  0.25000000  1.0
  O2-  O22  1  0.38100000  0.87800000  0.00000000  1.0
  O2-  O23  1  0.61900000  0.12200000  0.00000000  1.0
