# generated using pymatgen
data_MnO2
_symmetry_space_group_name_H-M   'P 1'
_cell_length_a   9.78900000
_cell_length_b   2.83400000
_cell_length_c   9.55100000
_cell_angle_alpha   90.00000000
_cell_angle_beta   93.72000000
_cell_angle_gamma   90.00000000
_symmetry_Int_Tables_number   1
_chemical_formula_structural   MnO2
_chemical_formula_sum   'Mn6 O12'
_cell_volume   264.40581932
_cell_formula_units_Z   6
loop_
 _symmetry_equiv_pos_site_id
 _symmetry_equiv_pos_as_xyz
  1  'x, y, z'
loop_
 _atom_type_symbol
 _atom_type_oxidation_number
  Mn4+  4.0
  O2-  -2.0
loop_
 _atom_site_type_symbol
 _atom_site_label
 _atom_site_symmetry_multiplicity
 _atom_site_fract_x
 _atom_site_fract_y
 _atom_site_fract_z
 _atom_site_occupancy
  Mn4+  Mn0  1  0.50000000  0.50000000  0.00000000  1.0
  Mn4+  Mn1  1  0.23600000  0.00000000  0.99800000  1.0
  Mn4+  Mn2  1  0.76400000  0.00000000  0.00200000  1.0
  Mn4+  Mn3  1  0.00000000  0.00000000  0.50000000  1.0
  Mn4+  Mn4  1  0.01000000  0.50000000  0.24100000  1.0
  Mn4+  Mn5  1  0.99000000  0.50000000  0.75900000  1.0
  O2-  O6  1  0.82000000  0.50000000  0.88400000  1.0
  O2-  O7  1  0.18000000  0.50000000  0.11600000  1.0
  O2-  O8  1  0.59700000  0.00000000  0.93100000  1.0
  O2-  O9  1  0.40300000  0.00000000  0.06900000  1.0
  O2-  O10  1  0.33700000  0.50000000  0.89000000  1.0
  O2-  O11  1  0.66300000  0.50000000  0.11000000  1.0
  O2-  O12  1  0.09200000  0.00000000  0.85000000  1.0
  O2-  O13  1  0.90800000  0.00000000  0.15000000  1.0
  O2-  O14  1  0.09700000  0.50000000  0.58800000  1.0
  O2-  O15  1  0.90300000  0.50000000  0.41200000  1.0
  O2-  O16  1  0.11100000  0.00000000  0.33400000  1.0
  O2-  O17  1  0.88900000  0.00000000  0.66600000  1.0
