# generated using pymatgen
data_MnO2
_symmetry_space_group_name_H-M   'P 1'
_cell_length_a   8.06000000
_cell_length_b   8.06000000
_cell_length_c   8.06000000
_cell_angle_alpha   90.00000000
_cell_angle_beta   90.00000000
_cell_angle_gamma   90.00000000
_symmetry_Int_Tables_number   1
_chemical_formula_structural   MnO2
_chemical_formula_sum   'Mn16 O32'
_cell_volume   523.60661600
_cell_formula_units_Z   16
loop_
 _symmetry_equiv_pos_site_id
 _symmetry_equiv_pos_as_xyz
  1  'x, y, z'
loop_
 _atom_type_symbol
 _atom_type_oxidation_number
  Mn4+  4.0
  O2-  -2.0
loop_
 _atom_site_type_symbol
 _atom_site_label
 _atom_site_symmetry_multiplicity
 _atom_site_fract_x
 _atom_site_fract_y
 _atom_site_fract_z
 _atom_site_occupancy
  Mn4+  Mn0  1  0.50000000  0.25000000  0.25000000  1.0
  Mn4+  Mn1  1  0.25000000  0.50000000  0.25000000  1.0
  Mn4+  Mn2  1  0.25000000  0.25000000  0.50000000  1.0
  Mn4+  Mn3  1  0.50000000  0.50000000  0.50000000  1.0
  Mn4+  Mn4  1  0.50000000  0.75000000  0.75000000  1.0
  Mn4+  Mn5  1  0.75000000  0.50000000  0.75000000  1.0
  Mn4+  Mn6  1  0.75000000  0.75000000  0.50000000  1.0
  Mn4+  Mn7  1  0.25000000  0.00000000  0.75000000  1.0
  Mn4+  Mn8  1  0.25000000  0.75000000  0.00000000  1.0
  Mn4+  Mn9  1  0.50000000  0.00000000  0.00000000  1.0
  Mn4+  Mn10  1  0.75000000  0.00000000  0.25000000  1.0
  Mn4+  Mn11  1  0.75000000  0.25000000  0.00000000  1.0
  Mn4+  Mn12  1  0.00000000  0.25000000  0.75000000  1.0
  Mn4+  Mn13  1  0.00000000  0.50000000  0.00000000  1.0
  Mn4+  Mn14  1  0.00000000  0.75000000  0.25000000  1.0
  Mn4+  Mn15  1  0.00000000  0.00000000  0.50000000  1.0
  O2-  O16  1  0.73700000  0.01300000  0.01300000  1.0
  O2-  O17  1  0.01300000  0.73700000  0.01300000  1.0
  O2-  O18  1  0.01300000  0.01300000  0.73700000  1.0
  O2-  O19  1  0.73700000  0.73700000  0.73700000  1.0
  O2-  O20  1  0.26300000  0.98700000  0.98700000  1.0
  O2-  O21  1  0.98700000  0.26300000  0.98700000  1.0
  O2-  O22  1  0.98700000  0.98700000  0.26300000  1.0
  O2-  O23  1  0.26300000  0.26300000  0.26300000  1.0
  O2-  O24  1  0.73700000  0.51300000  0.51300000  1.0
  O2-  O25  1  0.01300000  0.23700000  0.51300000  1.0
  O2-  O26  1  0.01300000  0.51300000  0.23700000  1.0
  O2-  O27  1  0.73700000  0.23700000  0.23700000  1.0
  O2-  O28  1  0.26300000  0.48700000  0.48700000  1.0
  O2-  O29  1  0.98700000  0.76300000  0.48700000  1.0
  O2-  O30  1  0.98700000  0.48700000  0.76300000  1.0
  O2-  O31  1  0.26300000  0.76300000  0.76300000  1.0
  O2-  O32  1  0.23700000  0.01300000  0.51300000  1.0
  O2-  O33  1  0.51300000  0.73700000  0.51300000  1.0
  O2-  O34  1  0.51300000  0.01300000  0.23700000  1.0
  O2-  O35  1  0.23700000  0.73700000  0.23700000  1.0
  O2-  O36  1  0.76300000  0.98700000  0.48700000  1.0
  O2-  O37  1  0.48700000  0.26300000  0.48700000  1.0
  O2-  O38  1  0.48700000  0.98700000  0.76300000  1.0
  O2-  O39  1  0.76300000  0.26300000  0.76300000  1.0
  O2-  O40  1  0.23700000  0.51300000  0.01300000  1.0
  O2-  O41  1  0.51300000  0.23700000  0.01300000  1.0
  O2-  O42  1  0.51300000  0.51300000  0.73700000  1.0
  O2-  O43  1  0.23700000  0.23700000  0.73700000  1.0
  O2-  O44  1  0.76300000  0.48700000  0.98700000  1.0
  O2-  O45  1  0.48700000  0.76300000  0.98700000  1.0
  O2-  O46  1  0.48700000  0.48700000  0.26300000  1.0
  O2-  O47  1  0.76300000  0.76300000  0.26300000  1.0
