# generated using pymatgen
data_MnO2
_symmetry_space_group_name_H-M   'P 1'
_cell_length_a   9.81810000
_cell_length_b   9.81810000
_cell_length_c   2.85650000
_cell_angle_alpha   90.00000000
_cell_angle_beta   90.00000000
_cell_angle_gamma   90.00000000
_symmetry_Int_Tables_number   1
_chemical_formula_structural   MnO2
_chemical_formula_sum   'Mn6 O12'
_cell_volume   275.35256776
_cell_formula_units_Z   6
loop_
 _symmetry_equiv_pos_site_id
 _symmetry_equiv_pos_as_xyz
  1  'x, y, z'
loop_
 _atom_type_symbol
 _atom_type_oxidation_number
  Mn3.58+  3.58
  O2-  -2.0
loop_
 _atom_site_type_symbol
 _atom_site_label
 _atom_site_symmetry_multiplicity
 _atom_site_fract_x
 _atom_site_fract_y
 _atom_site_fract_z
 _atom_site_occupancy
  Mn3.58+  Mn0  1  0.50000000  0.00000000  0.50000000  1.0
  Mn3.58+  Mn1  1  0.00000000  0.50000000  0.00000000  1.0
  Mn3.58+  Mn2  1  0.99060000  0.76990000  0.50000000  1.0
  Mn3.58+  Mn3  1  0.00940000  0.23010000  0.50000000  1.0
  Mn3.58+  Mn4  1  0.76990000  0.00940000  0.00000000  1.0
  Mn3.58+  Mn5  1  0.23010000  0.99060000  0.00000000  1.0
  O2-  O6  1  0.83930000  0.91820000  0.50000000  1.0
  O2-  O7  1  0.16070000  0.08180000  0.50000000  1.0
  O2-  O8  1  0.91820000  0.16070000  0.00000000  1.0
  O2-  O9  1  0.08180000  0.83930000  0.00000000  1.0
  O2-  O10  1  0.89740000  0.42230000  0.50000000  1.0
  O2-  O11  1  0.10260000  0.57770000  0.50000000  1.0
  O2-  O12  1  0.42230000  0.10260000  0.00000000  1.0
  O2-  O13  1  0.57770000  0.89740000  0.00000000  1.0
  O2-  O14  1  0.33300000  0.89760000  0.50000000  1.0
  O2-  O15  1  0.66700000  0.10240000  0.50000000  1.0
  O2-  O16  1  0.89760000  0.66700000  0.00000000  1.0
  O2-  O17  1  0.10240000  0.33300000  0.00000000  1.0
