# generated using pymatgen
data_MnO2
_symmetry_space_group_name_H-M   'P 1'
_cell_length_a   13.70000000
_cell_length_b   2.86700000
_cell_length_c   4.46000000
_cell_angle_alpha   90.00000000
_cell_angle_beta   90.50000000
_cell_angle_gamma   90.00000000
_symmetry_Int_Tables_number   1
_chemical_formula_structural   MnO2
_chemical_formula_sum   'Mn6 O12'
_cell_volume   175.17276370
_cell_formula_units_Z   6
loop_
 _symmetry_equiv_pos_site_id
 _symmetry_equiv_pos_as_xyz
  1  'x, y, z'
loop_
 _atom_type_symbol
 _atom_type_oxidation_number
  Mn4+  4.0
  O2-  -2.0
loop_
 _atom_site_type_symbol
 _atom_site_label
 _atom_site_symmetry_multiplicity
 _atom_site_fract_x
 _atom_site_fract_y
 _atom_site_fract_z
 _atom_site_occupancy
  Mn4+  Mn0  1  0.00000000  0.00000000  0.00000000  1.0
  Mn4+  Mn1  1  0.50000000  0.50000000  0.00000000  1.0
  Mn4+  Mn2  1  0.33900000  0.00000000  0.49400000  1.0
  Mn4+  Mn3  1  0.66100000  0.00000000  0.50600000  1.0
  Mn4+  Mn4  1  0.83900000  0.50000000  0.49400000  1.0
  Mn4+  Mn5  1  0.16100000  0.50000000  0.50600000  1.0
  O2-  O6  1  0.55350000  0.00000000  0.23200000  1.0
  O2-  O7  1  0.44650000  0.00000000  0.76800000  1.0
  O2-  O8  1  0.05350000  0.50000000  0.23200000  1.0
  O2-  O9  1  0.94650000  0.50000000  0.76800000  1.0
  O2-  O10  1  0.10950000  0.00000000  0.74000000  1.0
  O2-  O11  1  0.89050000  0.00000000  0.26000000  1.0
  O2-  O12  1  0.60950000  0.50000000  0.74000000  1.0
  O2-  O13  1  0.39050000  0.50000000  0.26000000  1.0
  O2-  O14  1  0.21700000  0.00000000  0.27400000  1.0
  O2-  O15  1  0.78300000  0.00000000  0.72600000  1.0
  O2-  O16  1  0.71700000  0.50000000  0.27400000  1.0
  O2-  O17  1  0.28300000  0.50000000  0.72600000  1.0
