# generated using pymatgen
data_MnO2
_symmetry_space_group_name_H-M   'P 1'
_cell_length_a   9.81500000
_cell_length_b   9.81500000
_cell_length_c   2.84700000
_cell_angle_alpha   90.00000000
_cell_angle_beta   90.00000000
_cell_angle_gamma   90.00000000
_symmetry_Int_Tables_number   1
_chemical_formula_structural   MnO2
_chemical_formula_sum   'Mn8 O16'
_cell_volume   274.26353857
_cell_formula_units_Z   8
loop_
 _symmetry_equiv_pos_site_id
 _symmetry_equiv_pos_as_xyz
  1  'x, y, z'
loop_
 _atom_type_symbol
 _atom_type_oxidation_number
  Mn4+  4.0
  O2-  -2.0
loop_
 _atom_site_type_symbol
 _atom_site_label
 _atom_site_symmetry_multiplicity
 _atom_site_fract_x
 _atom_site_fract_y
 _atom_site_fract_z
 _atom_site_occupancy
  Mn4+  Mn0  1  0.83000000  0.35000000  0.00000000  1.0
  Mn4+  Mn1  1  0.17000000  0.65000000  0.00000000  1.0
  Mn4+  Mn2  1  0.35000000  0.17000000  0.00000000  1.0
  Mn4+  Mn3  1  0.65000000  0.83000000  0.00000000  1.0
  Mn4+  Mn4  1  0.33000000  0.85000000  0.50000000  1.0
  Mn4+  Mn5  1  0.67000000  0.15000000  0.50000000  1.0
  Mn4+  Mn6  1  0.85000000  0.67000000  0.50000000  1.0
  Mn4+  Mn7  1  0.15000000  0.33000000  0.50000000  1.0
  O2-  O8  1  0.79500000  0.16000000  0.00000000  1.0
  O2-  O9  1  0.20500000  0.84000000  0.00000000  1.0
  O2-  O10  1  0.16000000  0.20500000  0.00000000  1.0
  O2-  O11  1  0.84000000  0.79500000  0.00000000  1.0
  O2-  O12  1  0.29500000  0.66000000  0.50000000  1.0
  O2-  O13  1  0.70500000  0.34000000  0.50000000  1.0
  O2-  O14  1  0.66000000  0.70500000  0.50000000  1.0
  O2-  O15  1  0.34000000  0.29500000  0.50000000  1.0
  O2-  O16  1  0.54200000  0.16000000  0.00000000  1.0
  O2-  O17  1  0.45800000  0.84000000  0.00000000  1.0
  O2-  O18  1  0.16000000  0.45800000  0.00000000  1.0
  O2-  O19  1  0.84000000  0.54200000  0.00000000  1.0
  O2-  O20  1  0.04200000  0.66000000  0.50000000  1.0
  O2-  O21  1  0.95800000  0.34000000  0.50000000  1.0
  O2-  O22  1  0.66000000  0.95800000  0.50000000  1.0
  O2-  O23  1  0.34000000  0.04200000  0.50000000  1.0
