# generated using pymatgen
data_Ti2MnO4
_symmetry_space_group_name_H-M   'P 1'
_cell_length_a   8.60000000
_cell_length_b   8.60000000
_cell_length_c   8.60000000
_cell_angle_alpha   90.00000000
_cell_angle_beta   90.00000000
_cell_angle_gamma   90.00000000
_symmetry_Int_Tables_number   1
_chemical_formula_structural   Ti2MnO4
_chemical_formula_sum   'Ti16 Mn8 O32'
_cell_volume   636.05600000
_cell_formula_units_Z   8
loop_
 _symmetry_equiv_pos_site_id
 _symmetry_equiv_pos_as_xyz
  1  'x, y, z'
loop_
 _atom_type_symbol
 _atom_type_oxidation_number
  Ti3+  3.0
  Mn2+  2.0
  O2-  -2.0
loop_
 _atom_site_type_symbol
 _atom_site_label
 _atom_site_symmetry_multiplicity
 _atom_site_fract_x
 _atom_site_fract_y
 _atom_site_fract_z
 _atom_site_occupancy
  Ti3+  Ti0  1  0.87500000  0.87500000  0.62500000  1.0
  Ti3+  Ti1  1  0.87500000  0.62500000  0.87500000  1.0
  Ti3+  Ti2  1  0.62500000  0.87500000  0.87500000  1.0
  Ti3+  Ti3  1  0.62500000  0.62500000  0.62500000  1.0
  Ti3+  Ti4  1  0.37500000  0.37500000  0.62500000  1.0
  Ti3+  Ti5  1  0.37500000  0.62500000  0.37500000  1.0
  Ti3+  Ti6  1  0.62500000  0.37500000  0.37500000  1.0
  Ti3+  Ti7  1  0.87500000  0.37500000  0.12500000  1.0
  Ti3+  Ti8  1  0.87500000  0.12500000  0.37500000  1.0
  Ti3+  Ti9  1  0.62500000  0.12500000  0.12500000  1.0
  Ti3+  Ti10  1  0.37500000  0.87500000  0.12500000  1.0
  Ti3+  Ti11  1  0.37500000  0.12500000  0.87500000  1.0
  Ti3+  Ti12  1  0.12500000  0.87500000  0.37500000  1.0
  Ti3+  Ti13  1  0.12500000  0.62500000  0.12500000  1.0
  Ti3+  Ti14  1  0.12500000  0.37500000  0.87500000  1.0
  Ti3+  Ti15  1  0.12500000  0.12500000  0.62500000  1.0
  Mn2+  Mn16  1  0.25000000  0.25000000  0.25000000  1.0
  Mn2+  Mn17  1  0.00000000  0.00000000  0.00000000  1.0
  Mn2+  Mn18  1  0.25000000  0.75000000  0.75000000  1.0
  Mn2+  Mn19  1  0.00000000  0.50000000  0.50000000  1.0
  Mn2+  Mn20  1  0.75000000  0.25000000  0.75000000  1.0
  Mn2+  Mn21  1  0.50000000  0.00000000  0.50000000  1.0
  Mn2+  Mn22  1  0.75000000  0.75000000  0.25000000  1.0
  Mn2+  Mn23  1  0.50000000  0.50000000  0.00000000  1.0
  O2-  O24  1  0.63700000  0.63700000  0.86300000  1.0
  O2-  O25  1  0.63700000  0.86300000  0.63700000  1.0
  O2-  O26  1  0.86300000  0.63700000  0.63700000  1.0
  O2-  O27  1  0.86300000  0.86300000  0.86300000  1.0
  O2-  O28  1  0.61300000  0.61300000  0.38700000  1.0
  O2-  O29  1  0.61300000  0.38700000  0.61300000  1.0
  O2-  O30  1  0.38700000  0.61300000  0.61300000  1.0
  O2-  O31  1  0.38700000  0.38700000  0.38700000  1.0
  O2-  O32  1  0.63700000  0.13700000  0.36300000  1.0
  O2-  O33  1  0.63700000  0.36300000  0.13700000  1.0
  O2-  O34  1  0.86300000  0.13700000  0.13700000  1.0
  O2-  O35  1  0.86300000  0.36300000  0.36300000  1.0
  O2-  O36  1  0.61300000  0.11300000  0.88700000  1.0
  O2-  O37  1  0.61300000  0.88700000  0.11300000  1.0
  O2-  O38  1  0.38700000  0.11300000  0.11300000  1.0
  O2-  O39  1  0.38700000  0.88700000  0.88700000  1.0
  O2-  O40  1  0.13700000  0.63700000  0.36300000  1.0
  O2-  O41  1  0.13700000  0.86300000  0.13700000  1.0
  O2-  O42  1  0.36300000  0.63700000  0.13700000  1.0
  O2-  O43  1  0.36300000  0.86300000  0.36300000  1.0
  O2-  O44  1  0.11300000  0.61300000  0.88700000  1.0
  O2-  O45  1  0.11300000  0.38700000  0.11300000  1.0
  O2-  O46  1  0.88700000  0.61300000  0.11300000  1.0
  O2-  O47  1  0.88700000  0.38700000  0.88700000  1.0
  O2-  O48  1  0.13700000  0.13700000  0.86300000  1.0
  O2-  O49  1  0.13700000  0.36300000  0.63700000  1.0
  O2-  O50  1  0.36300000  0.13700000  0.63700000  1.0
  O2-  O51  1  0.36300000  0.36300000  0.86300000  1.0
  O2-  O52  1  0.11300000  0.11300000  0.38700000  1.0
  O2-  O53  1  0.11300000  0.88700000  0.61300000  1.0
  O2-  O54  1  0.88700000  0.11300000  0.61300000  1.0
  O2-  O55  1  0.88700000  0.88700000  0.38700000  1.0
