# generated using pymatgen
data_Ti2O3
_symmetry_space_group_name_H-M   'P 1'
_cell_length_a   7.82480000
_cell_length_b   2.85070000
_cell_length_c   8.09670000
_cell_angle_alpha   90.00000000
_cell_angle_beta   90.00000000
_cell_angle_gamma   90.00000000
_symmetry_Int_Tables_number   1
_chemical_formula_structural   Ti2O3
_chemical_formula_sum   'Ti8 O12'
_cell_volume   180.60626430
_cell_formula_units_Z   4
loop_
 _symmetry_equiv_pos_site_id
 _symmetry_equiv_pos_as_xyz
  1  'x, y, z'
loop_
 _atom_type_symbol
 _atom_type_oxidation_number
  Ti3+  3.0
  O2-  -2.0
loop_
 _atom_site_type_symbol
 _atom_site_label
 _atom_site_symmetry_multiplicity
 _atom_site_fract_x
 _atom_site_fract_y
 _atom_site_fract_z
 _atom_site_occupancy
  Ti3+  Ti0  1  0.52790000  0.25000000  0.18350000  1.0
  Ti3+  Ti1  1  0.02790000  0.25000000  0.31650000  1.0
  Ti3+  Ti2  1  0.47210000  0.75000000  0.81650000  1.0
  Ti3+  Ti3  1  0.97210000  0.75000000  0.68350000  1.0
  Ti3+  Ti4  1  0.69520000  0.25000000  0.51780000  1.0
  Ti3+  Ti5  1  0.19520000  0.25000000  0.98220000  1.0
  Ti3+  Ti6  1  0.30480000  0.75000000  0.48220000  1.0
  Ti3+  Ti7  1  0.80480000  0.75000000  0.01780000  1.0
  O2-  O8  1  0.44320000  0.25000000  0.62960000  1.0
  O2-  O9  1  0.94320000  0.25000000  0.87040000  1.0
  O2-  O10  1  0.55680000  0.75000000  0.37040000  1.0
  O2-  O11  1  0.05680000  0.75000000  0.12960000  1.0
  O2-  O12  1  0.62370000  0.25000000  0.94550000  1.0
  O2-  O13  1  0.12370000  0.25000000  0.55450000  1.0
  O2-  O14  1  0.37630000  0.75000000  0.05450000  1.0
  O2-  O15  1  0.87630000  0.75000000  0.44550000  1.0
  O2-  O16  1  0.29010000  0.25000000  0.31150000  1.0
  O2-  O17  1  0.79010000  0.25000000  0.18850000  1.0
  O2-  O18  1  0.70990000  0.75000000  0.68850000  1.0
  O2-  O19  1  0.20990000  0.75000000  0.81150000  1.0
