# generated using pymatgen
data_Ti2O3
_symmetry_space_group_name_H-M   'P 1'
_cell_length_a   5.14600000
_cell_length_b   5.14600000
_cell_length_c   13.54100000
_cell_angle_alpha   90.00000000
_cell_angle_beta   90.00000000
_cell_angle_gamma   120.00000000
_symmetry_Int_Tables_number   1
_chemical_formula_structural   Ti2O3
_chemical_formula_sum   'Ti12 O18'
_cell_volume   310.54242034
_cell_formula_units_Z   6
loop_
 _symmetry_equiv_pos_site_id
 _symmetry_equiv_pos_as_xyz
  1  'x, y, z'
loop_
 _atom_type_symbol
 _atom_type_oxidation_number
  Ti0+  0.0
  O0+  0.0
loop_
 _atom_site_type_symbol
 _atom_site_label
 _atom_site_symmetry_multiplicity
 _atom_site_fract_x
 _atom_site_fract_y
 _atom_site_fract_z
 _atom_site_occupancy
  Ti0+  Ti0  1  0.00000000  0.00000000  0.35217000  1.0
  Ti0+  Ti1  1  0.00000000  0.00000000  0.85217000  1.0
  Ti0+  Ti2  1  0.00000000  0.00000000  0.64783000  1.0
  Ti0+  Ti3  1  0.00000000  0.00000000  0.14783000  1.0
  Ti0+  Ti4  1  0.66666667  0.33333333  0.68550333  1.0
  Ti0+  Ti5  1  0.66666667  0.33333333  0.18550333  1.0
  Ti0+  Ti6  1  0.66666667  0.33333333  0.98116333  1.0
  Ti0+  Ti7  1  0.66666667  0.33333333  0.48116333  1.0
  Ti0+  Ti8  1  0.33333333  0.66666667  0.01883667  1.0
  Ti0+  Ti9  1  0.33333333  0.66666667  0.51883667  1.0
  Ti0+  Ti10  1  0.33333333  0.66666667  0.31449667  1.0
  Ti0+  Ti11  1  0.33333333  0.66666667  0.81449667  1.0
  O0+  O12  1  0.30618000  0.00000000  0.25000000  1.0
  O0+  O13  1  0.69382000  0.69382000  0.25000000  1.0
  O0+  O14  1  0.00000000  0.30618000  0.25000000  1.0
  O0+  O15  1  0.30618000  0.30618000  0.75000000  1.0
  O0+  O16  1  0.00000000  0.69382000  0.75000000  1.0
  O0+  O17  1  0.69382000  0.00000000  0.75000000  1.0
  O0+  O18  1  0.97284667  0.33333333  0.58333333  1.0
  O0+  O19  1  0.36048667  0.02715333  0.58333333  1.0
  O0+  O20  1  0.66666667  0.63951333  0.58333333  1.0
  O0+  O21  1  0.97284667  0.63951333  0.08333333  1.0
  O0+  O22  1  0.66666667  0.02715333  0.08333333  1.0
  O0+  O23  1  0.36048667  0.33333333  0.08333333  1.0
  O0+  O24  1  0.63951333  0.66666667  0.91666667  1.0
  O0+  O25  1  0.02715333  0.36048667  0.91666667  1.0
  O0+  O26  1  0.33333333  0.97284667  0.91666667  1.0
  O0+  O27  1  0.63951333  0.97284667  0.41666667  1.0
  O0+  O28  1  0.33333333  0.36048667  0.41666667  1.0
  O0+  O29  1  0.02715333  0.66666667  0.41666667  1.0
