# generated using pymatgen
data_TiF3
_symmetry_space_group_name_H-M   'P 1'
_cell_length_a   5.44200000
_cell_length_b   5.44200000
_cell_length_c   13.63000000
_cell_angle_alpha   90.00000000
_cell_angle_beta   90.00000000
_cell_angle_gamma   120.00000000
_symmetry_Int_Tables_number   1
_chemical_formula_structural   TiF3
_chemical_formula_sum   'Ti6 F18'
_cell_volume   349.57757263
_cell_formula_units_Z   6
loop_
 _symmetry_equiv_pos_site_id
 _symmetry_equiv_pos_as_xyz
  1  'x, y, z'
loop_
 _atom_type_symbol
 _atom_type_oxidation_number
  Ti3+  3.0
  F-  -1.0
loop_
 _atom_site_type_symbol
 _atom_site_label
 _atom_site_symmetry_multiplicity
 _atom_site_fract_x
 _atom_site_fract_y
 _atom_site_fract_z
 _atom_site_occupancy
  Ti3+  Ti0  1  0.00000000  0.00000000  0.50000000  1.0
  Ti3+  Ti1  1  0.00000000  0.00000000  0.00000000  1.0
  Ti3+  Ti2  1  0.66666667  0.33333333  0.83333333  1.0
  Ti3+  Ti3  1  0.66666667  0.33333333  0.33333333  1.0
  Ti3+  Ti4  1  0.33333333  0.66666667  0.16666667  1.0
  Ti3+  Ti5  1  0.33333333  0.66666667  0.66666667  1.0
  F-  F6  1  0.44100000  0.00000000  0.75000000  1.0
  F-  F7  1  0.55900000  0.55900000  0.75000000  1.0
  F-  F8  1  0.00000000  0.44100000  0.75000000  1.0
  F-  F9  1  0.44100000  0.44100000  0.25000000  1.0
  F-  F10  1  0.00000000  0.55900000  0.25000000  1.0
  F-  F11  1  0.55900000  0.00000000  0.25000000  1.0
  F-  F12  1  0.10766667  0.33333333  0.08333333  1.0
  F-  F13  1  0.22566667  0.89233333  0.08333333  1.0
  F-  F14  1  0.66666667  0.77433333  0.08333333  1.0
  F-  F15  1  0.10766667  0.77433333  0.58333333  1.0
  F-  F16  1  0.66666667  0.89233333  0.58333333  1.0
  F-  F17  1  0.22566667  0.33333333  0.58333333  1.0
  F-  F18  1  0.77433333  0.66666667  0.41666667  1.0
  F-  F19  1  0.89233333  0.22566667  0.41666667  1.0
  F-  F20  1  0.33333333  0.10766667  0.41666667  1.0
  F-  F21  1  0.77433333  0.10766667  0.91666667  1.0
  F-  F22  1  0.33333333  0.22566667  0.91666667  1.0
  F-  F23  1  0.89233333  0.66666667  0.91666667  1.0
