# generated using pymatgen
data_TiMnO3
_symmetry_space_group_name_H-M   'P 1'
_cell_length_a   5.13500000
_cell_length_b   5.31880000
_cell_length_c   7.50170000
_cell_angle_alpha   90.00000000
_cell_angle_beta   90.00000000
_cell_angle_gamma   90.00000000
_symmetry_Int_Tables_number   1
_chemical_formula_structural   TiMnO3
_chemical_formula_sum   'Ti4 Mn4 O12'
_cell_volume   204.88671546
_cell_formula_units_Z   4
loop_
 _symmetry_equiv_pos_site_id
 _symmetry_equiv_pos_as_xyz
  1  'x, y, z'
loop_
 _atom_type_symbol
 _atom_type_oxidation_number
  Ti4+  4.0
  Mn2+  2.0
  O2-  -2.0
loop_
 _atom_site_type_symbol
 _atom_site_label
 _atom_site_symmetry_multiplicity
 _atom_site_fract_x
 _atom_site_fract_y
 _atom_site_fract_z
 _atom_site_occupancy
  Ti4+  Ti0  1  0.00000000  0.50000000  0.00000000  1.0
  Ti4+  Ti1  1  0.50000000  0.00000000  0.50000000  1.0
  Ti4+  Ti2  1  0.00000000  0.50000000  0.50000000  1.0
  Ti4+  Ti3  1  0.50000000  0.00000000  0.00000000  1.0
  Mn2+  Mn4  1  0.51210000  0.55100000  0.25000000  1.0
  Mn2+  Mn5  1  0.98790000  0.05100000  0.25000000  1.0
  Mn2+  Mn6  1  0.48790000  0.44900000  0.75000000  1.0
  Mn2+  Mn7  1  0.01210000  0.94900000  0.75000000  1.0
  O2-  O8  1  0.38070000  0.95040000  0.25000000  1.0
  O2-  O9  1  0.11930000  0.45040000  0.25000000  1.0
  O2-  O10  1  0.61930000  0.04960000  0.75000000  1.0
  O2-  O11  1  0.88070000  0.54960000  0.75000000  1.0
  O2-  O12  1  0.80970000  0.81450000  0.06280000  1.0
  O2-  O13  1  0.69030000  0.31450000  0.43720000  1.0
  O2-  O14  1  0.19030000  0.18550000  0.56280000  1.0
  O2-  O15  1  0.30970000  0.68550000  0.93720000  1.0
  O2-  O16  1  0.19030000  0.18550000  0.93720000  1.0
  O2-  O17  1  0.30970000  0.68550000  0.56280000  1.0
  O2-  O18  1  0.80970000  0.81450000  0.43720000  1.0
  O2-  O19  1  0.69030000  0.31450000  0.06280000  1.0
