# generated using pymatgen
data_TiOF5
_symmetry_space_group_name_H-M   'P 1'
_cell_length_a   14.52800000
_cell_length_b   4.83900000
_cell_length_c   13.79800000
_cell_angle_alpha   90.00000000
_cell_angle_beta   115.59000000
_cell_angle_gamma   90.00000000
_symmetry_Int_Tables_number   1
_chemical_formula_structural   TiOF5
_chemical_formula_sum   'Ti8 O8 F40'
_cell_volume   874.86249191
_cell_formula_units_Z   8
loop_
 _symmetry_equiv_pos_site_id
 _symmetry_equiv_pos_as_xyz
  1  'x, y, z'
loop_
 _atom_type_symbol
 _atom_type_oxidation_number
  Ti4+  4.0
  O2-  -2.0
  F-  -1.0
loop_
 _atom_site_type_symbol
 _atom_site_label
 _atom_site_symmetry_multiplicity
 _atom_site_fract_x
 _atom_site_fract_y
 _atom_site_fract_z
 _atom_site_occupancy
  Ti4+  Ti0  1  0.63980000  0.48790000  0.17850000  1.0
  Ti4+  Ti1  1  0.36020000  0.48790000  0.32150000  1.0
  Ti4+  Ti2  1  0.36020000  0.51210000  0.82150000  1.0
  Ti4+  Ti3  1  0.63980000  0.51210000  0.67850000  1.0
  Ti4+  Ti4  1  0.13980000  0.98790000  0.17850000  1.0
  Ti4+  Ti5  1  0.86020000  0.98790000  0.32150000  1.0
  Ti4+  Ti6  1  0.86020000  0.01210000  0.82150000  1.0
  Ti4+  Ti7  1  0.13980000  0.01210000  0.67850000  1.0
  O2-  O8  1  0.86940000  0.48390000  0.06960000  1.0
  O2-  O9  1  0.13060000  0.48390000  0.43040000  1.0
  O2-  O10  1  0.13060000  0.51610000  0.93040000  1.0
  O2-  O11  1  0.86940000  0.51610000  0.56960000  1.0
  O2-  O12  1  0.36940000  0.98390000  0.06960000  1.0
  O2-  O13  1  0.63060000  0.98390000  0.43040000  1.0
  O2-  O14  1  0.63060000  0.01610000  0.93040000  1.0
  O2-  O15  1  0.36940000  0.01610000  0.56960000  1.0
  F-  F16  1  0.75950000  0.25080000  0.21400000  1.0
  F-  F17  1  0.24050000  0.25080000  0.28600000  1.0
  F-  F18  1  0.24050000  0.74920000  0.78600000  1.0
  F-  F19  1  0.75950000  0.74920000  0.71400000  1.0
  F-  F20  1  0.25950000  0.75080000  0.21400000  1.0
  F-  F21  1  0.74050000  0.75080000  0.28600000  1.0
  F-  F22  1  0.74050000  0.24920000  0.78600000  1.0
  F-  F23  1  0.25950000  0.24920000  0.71400000  1.0
  F-  F24  1  0.62650000  0.32580000  0.29180000  1.0
  F-  F25  1  0.37350000  0.32580000  0.20820000  1.0
  F-  F26  1  0.37350000  0.67420000  0.70820000  1.0
  F-  F27  1  0.62650000  0.67420000  0.79180000  1.0
  F-  F28  1  0.12650000  0.82580000  0.29180000  1.0
  F-  F29  1  0.87350000  0.82580000  0.20820000  1.0
  F-  F30  1  0.87350000  0.17420000  0.70820000  1.0
  F-  F31  1  0.12650000  0.17420000  0.79180000  1.0
  F-  F32  1  0.67170000  0.66490000  0.07940000  1.0
  F-  F33  1  0.32830000  0.66490000  0.42060000  1.0
  F-  F34  1  0.32830000  0.33510000  0.92060000  1.0
  F-  F35  1  0.67170000  0.33510000  0.57940000  1.0
  F-  F36  1  0.17170000  0.16490000  0.07940000  1.0
  F-  F37  1  0.82830000  0.16490000  0.42060000  1.0
  F-  F38  1  0.82830000  0.83510000  0.92060000  1.0
  F-  F39  1  0.17170000  0.83510000  0.57940000  1.0
  F-  F40  1  0.53990000  0.73020000  0.16250000  1.0
  F-  F41  1  0.46010000  0.73020000  0.33750000  1.0
  F-  F42  1  0.46010000  0.26980000  0.83750000  1.0
  F-  F43  1  0.53990000  0.26980000  0.66250000  1.0
  F-  F44  1  0.03990000  0.23020000  0.16250000  1.0
  F-  F45  1  0.96010000  0.23020000  0.33750000  1.0
  F-  F46  1  0.96010000  0.76980000  0.83750000  1.0
  F-  F47  1  0.03990000  0.76980000  0.66250000  1.0
  F-  F48  1  0.56150000  0.24740000  0.08210000  1.0
  F-  F49  1  0.43850000  0.24740000  0.41790000  1.0
  F-  F50  1  0.43850000  0.75260000  0.91790000  1.0
  F-  F51  1  0.56150000  0.75260000  0.58210000  1.0
  F-  F52  1  0.06150000  0.74740000  0.08210000  1.0
  F-  F53  1  0.93850000  0.74740000  0.41790000  1.0
  F-  F54  1  0.93850000  0.25260000  0.91790000  1.0
  F-  F55  1  0.06150000  0.25260000  0.58210000  1.0
